20
 generated by VMD
 C          -7.060562      -23.149891        2.642295
 N          -6.080224      -22.655281        2.761019
 H          -6.313466      -20.936150       -0.233186
 H          -7.934775      -21.706949       -0.713839
 C          -7.012943      -21.194799       -1.020149
 C          -6.303319      -22.029211       -2.081272
 C          -7.255116      -19.797762       -1.604431
 C          -7.077189      -22.147184       -3.383459
 C          -8.060658      -19.846256       -2.934252
 C          -7.354413      -20.758352       -3.998866
 H          -6.167375      -23.068947       -1.649430
 H          -5.293473      -21.702696       -2.184549
 H          -7.874638      -19.271103       -0.855712
 H          -6.285950      -19.224087       -1.711215
 H          -8.018980      -22.715570       -3.241988
 H          -6.493517      -22.715385       -4.107586
 H          -8.123669      -18.852097       -3.378971
 H          -9.069697      -20.195818       -2.752248
 H          -7.897489      -20.777317       -4.953819
 H          -6.378748      -20.300419       -4.254197
