20
 generated by VMD
 C         -52.046768     -146.200027      -43.985737
 N         -51.628281     -146.449905      -45.083664
 H         -53.271332     -145.369873      -47.034752
 H         -52.283268     -145.930511      -42.945816
 C         -53.842075     -144.883377      -47.756634
 C         -52.877464     -144.782013      -48.842464
 C         -54.881077     -143.764648      -47.548447
 C         -53.502373     -144.204330      -50.070541
 C         -55.409298     -143.137573      -48.853313
 C         -54.211773     -142.881073      -49.752846
 H         -52.403687     -145.702621      -49.113987
 H         -52.028412     -144.020401      -48.661667
 H         -55.710121     -144.159180      -47.010700
 H         -54.397072     -143.019684      -47.013371
 H         -54.274567     -144.792099      -50.408749
 H         -52.697727     -143.983505      -50.726364
 H         -55.961468     -142.235443      -48.618511
 H         -56.038479     -143.803345      -49.400311
 H         -54.555855     -142.549942      -50.817696
 H         -53.464207     -142.145004      -49.443535
