20
 generated by VMD
 C         -13.144864      -28.622255       -5.576970
 N         -12.735049      -27.577713       -5.458160
 H         -11.290546      -31.021965       -3.194518
 H         -11.235204      -29.501848       -4.044378
 C         -10.611731      -30.308840       -3.621872
 C          -9.792578      -31.005964       -4.766267
 C          -9.643942      -29.779770       -2.534682
 C          -8.648585      -30.163866       -5.378100
 C          -8.622403      -28.742062       -3.155856
 C          -7.815242      -29.439129       -4.214973
 H         -10.405519      -31.224813       -5.645772
 H          -9.477036      -31.974409       -4.360277
 H         -10.134147      -29.307922       -1.653857
 H          -9.003179      -30.581085       -2.142826
 H          -9.067013      -29.386362       -6.033975
 H          -8.022749      -30.807077       -6.030191
 H          -7.964483      -28.406050       -2.321938
 H          -9.198160      -27.917770       -3.533572
 H          -7.070518      -28.755880       -4.658350
 H          -7.097877      -30.180273       -3.824421
