20
 generated by VMD
 C         -40.065960     -100.301689      -30.319695
 N         -40.751728     -100.349960      -31.284668
 H         -37.329216     -102.194443      -30.598988
 H         -39.367397     -100.254890      -29.547592
 C         -36.656452     -101.498734      -30.920988
 C         -36.637447     -100.971336      -32.277939
 C         -35.336021     -101.251900      -30.113945
 C         -36.078312      -99.455376      -32.309887
 C         -34.939117      -99.717262      -29.920807
 C         -34.717297      -99.265892      -31.495703
 H         -37.547356     -100.944778      -32.853321
 H         -35.951866     -101.522545      -32.879131
 H         -35.484451     -101.795189      -29.135607
 H         -34.407665     -101.641815      -30.495876
 H         -36.715355      -98.734360      -31.788404
 H         -36.072453      -99.104385      -33.418446
 H         -33.990314      -99.655151      -29.291826
 H         -35.720070      -99.222855      -29.363230
 H         -34.320747      -98.305161      -31.377701
 H         -34.004631      -99.804817      -32.095547
