20
 generated by VMD
 C         -21.593534      -52.404110      -11.351213
 N         -21.520178      -52.975754      -10.279032
 H         -19.646069      -50.356022      -14.107032
 H         -21.945883      -52.118896      -12.174937
 C         -18.906317      -50.964939      -13.649805
 C         -18.201485      -52.002632      -14.510862
 C         -18.359577      -50.755817      -12.283899
 C         -16.656998      -51.919987      -14.396862
 C         -16.753134      -50.816113      -12.210124
 C         -16.094139      -51.953236      -12.997623
 H         -18.599094      -51.922764      -15.539402
 H         -18.503626      -52.935104      -14.032252
 H         -18.553194      -49.714931      -11.866201
 H         -18.855795      -51.453793      -11.600438
 H         -16.346458      -50.992508      -14.916706
 H         -16.106165      -52.708530      -14.979506
 H         -16.591383      -51.031570      -11.133186
 H         -16.312551      -49.852779      -12.386707
 H         -15.016587      -51.861446      -13.120365
 H         -16.225536      -52.915745      -12.518186
