20
 generated by VMD
 C         -29.159088      -81.289246      -27.580099
 N         -29.897055      -80.374489      -27.611637
 H         -28.436529      -82.708260      -23.983463
 H         -28.452063      -82.076683      -27.794180
 C         -29.398455      -83.205627      -23.777679
 C         -29.734047      -83.563629      -22.419220
 C         -29.952654      -83.914055      -24.896690
 C         -31.249670      -83.836288      -22.244595
 C         -31.462090      -83.843636      -24.733459
 C         -31.811874      -84.632561      -23.452377
 H         -29.493475      -82.693451      -21.826651
 H         -29.144899      -84.394287      -22.043062
 H         -29.808861      -83.334923      -25.832771
 H         -29.425304      -84.892151      -25.033590
 H         -31.762634      -82.790016      -22.266920
 H         -31.338661      -84.214546      -21.266430
 H         -31.966633      -84.238274      -25.595528
 H         -31.834463      -82.751282      -24.653133
 H         -32.885876      -84.911255      -23.257046
 H         -31.310566      -85.591240      -23.637438
