20
 generated by VMD
 C         -40.479153     -117.366257      -34.540295
 N         -39.472328     -116.940536      -34.901886
 H         -41.673389     -116.514236      -37.268379
 H         -41.359634     -117.945282      -34.129765
 C         -42.736443     -116.433517      -37.645077
 C         -42.947311     -116.455276      -39.098576
 C         -43.856022     -116.233795      -36.671432
 C         -44.216190     -117.192245      -39.523434
 C         -45.199772     -116.949097      -37.184742
 C         -45.434166     -116.677734      -38.632343
 H         -42.071617     -117.003387      -39.507046
 H         -42.867413     -115.489471      -39.641296
 H         -43.563000     -116.596428      -35.687565
 H         -44.170879     -115.151230      -36.472919
 H         -44.232391     -118.242813      -39.263805
 H         -44.453003     -117.123505      -40.567719
 H         -45.944939     -116.625954      -36.466961
 H         -44.967648     -118.008507      -37.072773
 H         -46.335709     -117.277054      -39.079247
 H         -45.518204     -115.622841      -38.919464
