20
 generated by VMD
 C         -66.134323     -177.895493      -56.894096
 N         -67.119843     -177.318939      -57.111809
 H         -63.931599     -175.346786      -58.535210
 H         -65.250832     -178.395142      -56.623775
 C         -64.376442     -174.828857      -59.337593
 C         -65.655365     -174.043045      -59.140930
 C         -63.380951     -174.416595      -60.415306
 C         -65.294632     -172.550583      -59.077374
 C         -63.074226     -173.041473      -60.396816
 C         -64.219833     -172.136230      -60.247868
 H         -66.176308     -174.425446      -58.218796
 H         -66.420776     -174.195145      -59.918293
 H         -62.574654     -175.031952      -60.259708
 H         -63.667629     -174.816544      -61.381325
 H         -64.747963     -172.256790      -58.155815
 H         -66.211945     -171.908768      -59.107441
 H         -62.409149     -172.828705      -61.222309
 H         -62.431549     -172.759232      -59.508598
 H         -64.138771     -171.020844      -60.116600
 H         -64.836090     -172.237030      -61.130985
