20
 generated by VMD
 C         -27.533302      -81.154388      -27.375664
 N         -28.534950      -81.636749      -27.612713
 H         -30.345469      -83.292336      -25.507607
 H         -26.551863      -80.705177      -26.970980
 C         -30.744795      -84.164627      -24.983509
 C         -30.571554      -84.099709      -23.445276
 C         -31.521290      -85.370132      -25.647789
 C         -31.751352      -84.621643      -22.737679
 C         -32.682873      -85.730255      -24.735855
 C         -32.318687      -85.906670      -23.294735
 H         -30.395964      -83.079399      -23.123058
 H         -29.642637      -84.786705      -23.171852
 H         -31.870396      -85.315689      -26.742458
 H         -30.765774      -86.166512      -25.679953
 H         -32.506527      -83.841087      -22.617462
 H         -31.452343      -85.055237      -21.725132
 H         -32.974888      -86.766884      -25.173422
 H         -33.445793      -84.998528      -25.025703
 H         -33.197323      -86.375771      -22.803526
 H         -31.546087      -86.700676      -23.274717
