20
 generated by VMD
 C         -59.048141     -158.821228      -57.320477
 N         -58.807911     -158.154083      -58.254490
 H         -59.743839     -159.230362      -54.207577
 H         -59.296722     -159.485458      -56.528805
 C         -59.606678     -160.135376      -53.577560
 C         -58.544502     -160.272888      -52.620831
 C         -60.563789     -161.252075      -53.699505
 C         -59.003605     -160.733215      -51.203083
 C         -61.022793     -161.577469      -52.259525
 C         -59.785988     -161.923645      -51.429745
 H         -57.962734     -159.308792      -52.547794
 H         -57.775013     -160.939255      -52.999516
 H         -61.473164     -160.904907      -54.311203
 H         -60.103977     -162.155136      -54.216145
 H         -59.620373     -159.883133      -50.731926
 H         -58.199200     -161.010956      -50.614651
 H         -61.726463     -162.454346      -52.219021
 H         -61.648533     -160.730820      -51.908287
 H         -60.103024     -162.234970      -50.447510
 H         -59.151276     -162.593521      -51.921898
