20
 generated by VMD
 C         -50.093266     -144.625763      -44.360680
 N         -49.301517     -143.893509      -44.898502
 H         -52.313530     -142.320511      -45.777664
 H         -50.785168     -145.418976      -44.085270
 C         -53.004456     -142.224258      -46.589413
 C         -52.365005     -142.148697      -47.900013
 C         -54.363453     -141.635727      -46.505016
 C         -53.294041     -142.570663      -49.031647
 C         -55.365303     -141.983154      -47.709877
 C         -54.681072     -141.822296      -49.135151
 H         -51.499626     -142.963440      -47.960491
 H         -51.869324     -141.139191      -47.967960
 H         -54.830204     -141.985626      -45.539558
 H         -54.326714     -140.425919      -46.542656
 H         -53.411106     -143.706635      -49.029270
 H         -52.786282     -142.292999      -49.980778
 H         -56.370804     -141.418182      -47.684723
 H         -55.539234     -143.050949      -47.469276
 H         -55.393845     -142.177063      -49.971939
 H         -54.368778     -140.725067      -49.427063
