20
 generated by VMD
 C         -80.136871     -206.861374      -74.010353
 N         -80.570381     -206.954910      -75.111412
 H         -77.070541     -207.126953      -72.949181
 H         -79.701683     -206.594177      -73.028214
 C         -76.657448     -207.577576      -72.037582
 C         -75.307457     -207.088715      -71.387375
 C         -77.273651     -208.653275      -71.319000
 C         -75.491554     -206.845596      -69.852470
 C         -77.598152     -208.295609      -69.941963
 C         -76.260498     -208.017838      -69.237083
 H         -74.783585     -206.216690      -71.840279
 H         -74.735992     -207.942657      -71.677795
 H         -78.058220     -209.214157      -71.846786
 H         -76.493088     -209.462646      -71.181412
 H         -76.023338     -205.925522      -69.681763
 H         -74.457047     -206.773987      -69.511955
 H         -78.019615     -209.274078      -69.463783
 H         -78.263618     -207.483093      -69.700378
 H         -76.454659     -207.684341      -68.229248
 H         -75.722595     -208.959091      -69.017700
