20
 generated by VMD
 C         -68.886734     -185.861511      -66.302917
 N         -68.322975     -186.199951      -67.269806
 H         -69.484550     -183.082733      -63.585880
 H         -69.307610     -185.561661      -65.344742
 C         -69.338333     -183.922348      -62.883511
 C         -70.459610     -184.842316      -62.552158
 C         -67.992943     -184.038147      -62.261513
 C         -70.257782     -185.838440      -61.443607
 C         -67.700584     -185.321594      -61.446396
 C         -68.875725     -186.400299      -61.510902
 H         -70.642372     -185.293594      -63.555382
 H         -71.264915     -184.152664      -62.274639
 H         -67.248627     -184.148499      -63.099701
 H         -67.725479     -183.219666      -61.573853
 H         -70.982681     -186.691406      -61.408806
 H         -70.543198     -185.226837      -60.574837
 H         -67.555527     -184.929031      -60.465298
 H         -66.721367     -185.809860      -61.696922
 H         -68.770386     -187.184860      -62.369614
 H         -68.647255     -186.892273      -60.593086
