20
 generated by VMD
 C          -1.453137      -13.268954        0.744892
 N          -0.502931      -13.638750        0.297987
 H          -4.218131      -13.927843        2.143058
 H          -5.022600      -13.847260        0.633488
 C          -4.904433      -14.475500        1.507857
 C          -6.235513      -14.596704        2.206310
 C          -4.363814      -15.815620        1.018560
 C          -7.258736      -15.510784        1.558699
 C          -5.372797      -16.689655        0.230692
 C          -6.639134      -16.818808        1.132535
 H          -6.596450      -13.542624        2.320251
 H          -6.076526      -14.888359        3.293730
 H          -3.381529      -15.694037        0.490727
 H          -4.184092      -16.465492        1.978776
 H          -7.708625      -15.077854        0.691873
 H          -8.065159      -15.674047        2.238621
 H          -4.943484      -17.665173        0.140279
 H          -5.585955      -16.306793       -0.770301
 H          -7.388282      -17.440544        0.618906
 H          -6.343632      -17.415722        1.998343
