20
 generated by VMD
 C         -20.363617      -57.289982      -16.660948
 N         -19.723673      -56.356274      -16.579044
 H         -22.874193      -60.132778      -17.809006
 H         -21.066639      -58.250736      -16.602631
 C         -22.632250      -60.642906      -16.943001
 C         -23.519918      -60.419670      -15.798350
 C         -21.269506      -61.325596      -16.791599
 C         -22.623974      -60.456501      -14.507990
 C         -20.957569      -62.091816      -15.517612
 C         -21.957453      -61.813717      -14.342944
 H         -24.274387      -61.265377      -15.898705
 H         -24.007755      -59.459419      -15.941429
 H         -20.970060      -61.977222      -17.635254
 H         -20.543560      -60.524544      -16.754368
 H         -23.208754      -60.198334      -13.618713
 H         -21.864084      -59.651402      -14.473701
 H         -19.962452      -61.712837      -15.106786
 H         -20.936569      -63.214592      -15.732084
 H         -22.844542      -62.414955      -14.492499
 H         -21.553417      -62.144444      -13.419994
