20
 generated by VMD
 C         -70.111374     -181.365982      -62.844776
 N         -71.129860     -181.052322      -63.245018
 H         -67.640839     -181.706390      -60.559658
 H         -69.140099     -181.676163      -62.417965
 C         -66.893753     -180.938461      -60.833775
 C         -65.430634     -181.200562      -60.580830
 C         -67.287247     -179.547302      -60.578835
 C         -64.356003     -180.034225      -60.622871
 C         -66.282341     -178.404419      -60.966251
 C         -64.953979     -178.638062      -60.209183
 H         -65.197861     -182.070801      -61.151035
 H         -65.353714     -181.520935      -59.611282
 H         -68.259094     -179.350754      -61.263702
 H         -67.634911     -179.461853      -59.506252
 H         -64.000099     -179.880646      -61.717850
 H         -63.376457     -180.105316      -59.971004
 H         -66.783424     -177.447800      -60.923992
 H         -66.052216     -178.457108      -62.028870
 H         -64.327156     -177.746918      -60.656296
 H         -65.052727     -178.587448      -59.142872
