20
 generated by VMD
 C         -21.886801      -55.612766      -17.660898
 N         -20.859957      -55.635986      -18.107359
 H         -21.948587      -57.315956      -14.883537
 H         -22.755749      -55.356678      -16.893789
 C         -21.767168      -58.373932      -14.674034
 C         -21.486235      -58.819454      -13.340505
 C         -21.571854      -59.326389      -15.757396
 C         -20.999468      -60.315002      -13.283398
 C         -20.228516      -60.046398      -15.716350
 C         -19.983490      -60.711655      -14.310841
 H         -22.459158      -58.774391      -12.703936
 H         -20.753195      -58.165009      -12.845254
 H         -22.362614      -60.041603      -15.779268
 H         -21.655329      -58.716068      -16.635155
 H         -21.828876      -60.994354      -13.409642
 H         -20.630333      -60.485279      -12.301998
 H         -19.414021      -59.317661      -15.828905
 H         -20.263542      -60.844345      -16.433300
 H         -20.016312      -61.841469      -14.437092
 H         -18.990524      -60.564243      -13.895164
