20
 generated by VMD
 C         -31.090525      -74.826088      -21.857609
 N         -31.439791      -75.948227      -21.769911
 H         -28.488230      -76.651924      -20.718166
 H         -30.654850      -73.900070      -22.396784
 C         -27.662470      -76.265839      -21.273956
 C         -26.758238      -77.303391      -21.971729
 C         -27.014416      -75.075844      -20.613951
 C         -25.748827      -76.567955      -22.942329
 C         -26.033070      -74.343437      -21.634666
 C         -25.020531      -75.429405      -22.150034
 H         -27.310001      -78.148926      -22.512905
 H         -26.024527      -77.747360      -21.320665
 H         -27.733616      -74.445053      -20.290459
 H         -26.457878      -75.395470      -19.762182
 H         -26.365583      -76.219925      -23.768684
 H         -24.950262      -77.235512      -23.348362
 H         -25.385532      -73.654724      -21.057909
 H         -26.464151      -73.866661      -22.522642
 H         -24.390736      -74.841057      -22.839823
 H         -24.326542      -75.807190      -21.443079
