20
 generated by VMD
 C         -38.338551     -110.767174      -36.222210
 N         -37.994774     -109.662697      -36.353592
 H         -39.984306     -113.406227      -35.977264
 H         -38.705956     -111.775574      -36.110439
 C         -41.090843     -113.163292      -35.842697
 C         -42.124870     -113.791893      -36.695187
 C         -41.494259     -112.148834      -34.814762
 C         -43.345875     -114.255920      -36.040562
 C         -42.874378     -112.455330      -34.107876
 C         -43.893139     -113.081017      -35.176922
 H         -41.609360     -114.611305      -37.174538
 H         -42.326061     -113.066727      -37.503796
 H         -40.835545     -111.947792      -33.950592
 H         -41.673927     -111.116928      -35.248524
 H         -43.034603     -115.056618      -35.349289
 H         -44.096111     -114.519508      -36.754421
 H         -43.273670     -111.449173      -33.713543
 H         -42.707127     -113.171921      -33.243828
 H         -44.860569     -113.332016      -34.628674
 H         -44.002415     -112.317749      -35.867496
