20
 generated by VMD
 C          -8.403293      -23.556175        2.229028
 N          -7.850120      -23.894318        3.125769
 H          -8.892915      -23.433325       -1.571467
 H          -9.281760      -22.415283       -3.084063
 C          -8.536887      -22.863968       -2.402775
 C          -7.697083      -23.865959       -3.285957
 C          -7.584656      -21.796282       -1.852858
 C          -7.060586      -23.147501       -4.480592
 C          -6.977244      -21.066162       -2.965182
 C          -6.249012      -21.928219       -3.990758
 H          -8.407022      -24.673359       -3.517659
 H          -6.855300      -24.287390       -2.704333
 H          -8.099999      -21.016159       -1.265381
 H          -6.882390      -22.230528       -1.122458
 H          -7.763369      -22.767822       -5.226228
 H          -6.468257      -23.749172       -5.130801
 H          -6.268704      -20.287693       -2.589293
 H          -7.729858      -20.403893       -3.439894
 H          -5.856989      -21.309143       -4.859282
 H          -5.339336      -22.346853       -3.487587
