20
 generated by VMD
 C         -73.872162     -201.493210      -65.419312
 N         -72.911194     -201.037292      -65.845901
 H         -75.238045     -198.158051      -66.965523
 H         -74.684921     -202.184845      -65.182495
 C         -74.761269     -197.669205      -67.819527
 C         -74.863327     -196.205551      -68.044098
 C         -74.406723     -198.570419      -69.070755
 C         -73.478539     -195.677444      -68.492073
 C         -73.587242     -197.702744      -69.998497
 C         -72.647545     -196.683441      -69.177155
 H         -75.461166     -195.691788      -67.134636
 H         -75.544281     -195.994400      -68.880882
 H         -73.927986     -199.504196      -68.796692
 H         -75.378738     -198.830353      -69.469437
 H         -72.826714     -195.472961      -67.602783
 H         -73.543686     -194.773880      -69.097343
 H         -74.184944     -197.100433      -70.745148
 H         -72.901505     -198.395264      -70.520950
 H         -72.004974     -197.178024      -68.441711
 H         -72.042007     -196.139252      -69.898338
