20
 generated by VMD
 C         -38.668377     -113.492310      -36.132351
 N         -37.520805     -113.578873      -36.062374
 H         -41.370216     -114.414856      -35.115955
 H         -39.624302     -113.103561      -36.392200
 C         -42.246746     -114.544868      -35.727512
 C         -42.199894     -114.616272      -37.258808
 C         -43.476776     -114.143555      -35.084068
 C         -43.483643     -115.062805      -37.909187
 C         -44.654324     -114.944199      -35.659897
 C         -44.770096     -114.649422      -37.192059
 H         -41.406082     -115.349792      -37.405777
 H         -41.746346     -113.708885      -37.517437
 H         -43.378063     -114.282768      -34.049294
 H         -43.783665     -113.144691      -35.177746
 H         -43.467033     -116.143631      -37.794369
 H         -43.472301     -114.799324      -39.017414
 H         -45.683777     -114.886696      -35.241722
 H         -44.362686     -115.972565      -35.327290
 H         -45.704578     -115.124229      -37.603310
 H         -44.896011     -113.466476      -37.321400
