20
 generated by VMD
 C         -13.504840      -44.194744       -6.712718
 N         -13.788696      -43.952438       -5.648787
 H         -14.962695      -44.817616       -9.032243
 H         -14.439109      -43.779743      -10.470197
 C         -15.226019      -44.354671       -9.994123
 C         -16.413080      -43.484386       -9.773742
 C         -15.616006      -45.599670      -10.925822
 C         -16.909126      -42.931656      -11.094449
 C         -16.085051      -45.042820      -12.289759
 C         -17.205086      -44.035538      -12.113841
 H         -16.150774      -42.687527       -9.062215
 H         -17.226023      -44.128555       -9.404076
 H         -14.720505      -46.179802      -11.103384
 H         -16.479189      -46.077202      -10.433735
 H         -16.173243      -42.257267      -11.556897
 H         -17.845757      -42.339890      -10.967425
 H         -16.435432      -45.928886      -12.853513
 H         -15.297621      -44.541386      -12.827146
 H         -17.454477      -43.551609      -13.036942
 H         -18.108353      -44.564339      -11.839488
