20
 generated by VMD
 C         -30.128555      -79.371010      -25.916779
 N         -30.958862      -78.609444      -26.097439
 H         -28.331432      -82.672913      -25.656351
 H         -29.486444      -80.010567      -25.462749
 C         -28.946222      -82.633469      -24.677004
 C         -28.119257      -81.889526      -23.594540
 C         -30.014320      -83.680237      -24.249660
 C         -29.147236      -81.185020      -22.663336
 C         -30.889088      -83.105148      -23.070972
 C         -30.072596      -82.264206      -22.085409
 H         -27.388084      -81.193779      -23.990240
 H         -27.525274      -82.528877      -22.973604
 H         -30.731255      -84.144936      -25.011673
 H         -29.409081      -84.510551      -23.906471
 H         -29.877846      -80.413658      -23.060177
 H         -28.566441      -80.635963      -21.951057
 H         -31.383320      -84.003288      -22.581749
 H         -31.695793      -82.487595      -23.435339
 H         -30.749504      -81.917976      -21.239010
 H         -29.416435      -82.958099      -21.442799
