20
 generated by VMD
 C         -13.583736      -28.730001       -6.729634
 N         -13.198791      -28.839106       -7.774657
 H         -11.914099      -30.664675       -4.982513
 H         -10.416541      -29.813084       -4.490305
 C         -10.934986      -30.796696       -4.557118
 C         -10.047749      -31.618128       -5.582751
 C         -10.977156      -31.501865       -3.182826
 C          -8.616947      -31.732368       -5.067456
 C          -9.507911      -31.784552       -2.729455
 C          -8.727045      -32.597866       -3.756164
 H          -9.990805      -31.095917       -6.522669
 H         -10.530114      -32.577652       -5.803916
 H         -11.449598      -30.826626       -2.510242
 H         -11.527007      -32.427467       -3.239214
 H          -8.087591      -30.832470       -4.794018
 H          -7.998135      -32.245407       -5.790385
 H          -9.430255      -32.363972       -1.742739
 H          -9.021637      -30.854034       -2.582273
 H          -7.670026      -32.723587       -3.424631
 H          -9.186974      -33.606144       -3.981281
