20
 generated by VMD
 C         -31.031981      -75.144836      -21.517910
 N         -31.931118      -75.813744      -21.731468
 H         -28.461189      -76.197639      -20.813799
 H         -30.368622      -74.541313      -20.915762
 C         -27.468580      -75.861160      -21.092678
 C         -26.723408      -76.878754      -21.818892
 C         -26.710442      -74.664627      -20.640678
 C         -25.721983      -76.343666      -22.860193
 C         -25.686405      -74.169579      -21.685690
 C         -24.801258      -75.242325      -22.274879
 H         -27.533958      -77.642494      -22.312334
 H         -26.305882      -77.539673      -21.011353
 H         -27.353657      -73.824913      -20.497995
 H         -26.180990      -74.832336      -19.656519
 H         -26.426685      -75.948685      -23.626600
 H         -25.152308      -77.151070      -23.394579
 H         -25.012575      -73.402596      -21.177917
 H         -26.105032      -73.548157      -22.555952
 H         -24.209791      -74.725334      -23.062340
 H         -24.143957      -75.692924      -21.513664
