20
 generated by VMD
 C         -36.375210      -97.810143      -26.751614
 N         -36.035645      -98.137840      -25.685156
 H         -36.105011      -95.177925      -28.212311
 H         -36.573002      -97.454994      -27.814047
 C         -35.460415      -95.292389      -29.094549
 C         -35.624035      -96.180542      -30.261448
 C         -34.172020      -94.415558      -29.077141
 C         -35.460201      -95.422203      -31.560322
 C         -33.828041      -93.744888      -30.422724
 C         -34.015614      -94.777573      -31.499949
 H         -36.642433      -96.493118      -30.233479
 H         -34.979031      -97.070473      -30.378839
 H         -34.115364      -93.770325      -28.201042
 H         -33.412106      -95.157829      -28.830914
 H         -36.151276      -94.607788      -31.661469
 H         -35.576126      -96.064461      -32.464966
 H         -32.818932      -93.174042      -30.465504
 H         -34.618408      -93.032272      -30.670641
 H         -33.708130      -94.297203      -32.509995
 H         -33.261848      -95.606361      -31.322491
