20
 generated by VMD
 C         -22.176832      -52.923565      -12.435531
 N         -23.231987      -52.449020      -12.703294
 H         -20.298599      -54.090946      -14.095259
 H         -21.191271      -53.418182      -12.349516
 C         -19.339149      -53.710316      -13.676605
 C         -18.803171      -52.346100      -13.814658
 C         -18.327959      -54.805946      -13.488076
 C         -17.302879      -52.354538      -14.310719
 C         -17.222748      -54.328396      -12.597718
 C         -16.450449      -53.204357      -13.335778
 H         -18.885929      -51.849453      -12.803253
 H         -19.351744      -51.776985      -14.573689
 H         -18.777756      -55.682964      -13.005944
 H         -18.080936      -55.070492      -14.547997
 H         -16.953827      -51.310535      -14.410417
 H         -17.219097      -52.779171      -15.342105
 H         -16.517151      -55.202618      -12.421628
 H         -17.547159      -53.999096      -11.608688
 H         -16.029785      -52.515350      -12.611083
 H         -15.618518      -53.580132      -13.941517
