20
 generated by VMD
 C          -3.680118      -20.169378        3.347738
 N          -4.159128      -19.222046        2.995893
 H          -5.267883      -19.812778       -0.085948
 H          -6.280258      -21.091715       -0.850769
 C          -6.076557      -20.011343       -0.798847
 C          -5.666147      -19.541403       -2.190585
 C          -7.354145      -19.294357       -0.319959
 C          -6.786256      -19.792782       -3.178717
 C          -8.503649      -19.656792       -1.312235
 C          -8.122405      -19.267263       -2.710700
 H          -4.794906      -20.077267       -2.471234
 H          -5.476346      -18.453114       -2.085468
 H          -7.619517      -19.585741        0.749256
 H          -7.132372      -18.155952       -0.374071
 H          -6.883858      -20.896761       -3.356075
 H          -6.516701      -19.315205       -4.119595
 H          -9.433395      -19.241896       -0.992798
 H          -8.578338      -20.736410       -1.176475
 H          -8.848767      -19.582886       -3.470284
 H          -7.991301      -18.194090       -2.685539
