20
 generated by VMD
 C          -2.012399       -9.727695       -0.125595
 N          -2.376186       -8.782638        0.418485
 H          -2.212709      -11.040234        2.571427
 H          -2.427948      -11.854692        4.067076
 C          -2.758097      -11.822408        3.074025
 C          -2.593607      -13.071842        2.209743
 C          -4.231625      -11.406454        3.173363
 C          -3.416882      -14.281437        2.705887
 C          -5.113260      -12.537774        3.637705
 C          -4.887019      -13.844097        2.915289
 H          -1.513111      -13.290167        2.185934
 H          -2.883103      -12.775775        1.179283
 H          -4.454073      -10.472337        3.757083
 H          -4.637268      -11.128785        2.124816
 H          -2.977324      -14.518795        3.702565
 H          -3.340246      -15.136855        2.035607
 H          -6.179528      -12.273313        3.515485
 H          -4.985284      -12.729369        4.732898
 H          -5.407692      -14.685056        3.366286
 H          -5.366506      -13.783527        1.961713
