20
 generated by VMD
 C         -68.051491     -185.260834      -67.879745
 N         -67.608421     -185.441742      -66.834419
 H         -69.767014     -186.530548      -64.766441
 H         -68.527710     -185.069077      -68.877335
 C         -69.839729     -186.499802      -63.649982
 C         -70.579720     -185.375153      -62.967670
 C         -69.399895     -187.729568      -62.982586
 C         -70.229538     -185.262421      -61.523621
 C         -68.796425     -187.351929      -61.637947
 C         -69.868149     -186.543365      -60.812851
 H         -71.628670     -185.441772      -63.131111
 H         -70.393005     -184.497391      -63.586864
 H         -70.220245     -188.383865      -62.745075
 H         -68.915688     -188.427353      -63.633492
 H         -71.002701     -184.676498      -61.055557
 H         -69.382515     -184.518753      -61.362106
 H         -67.928009     -186.755508      -61.689182
 H         -68.486832     -188.253922      -61.106983
 H         -70.611404     -187.156052      -60.787228
 H         -69.575539     -186.332260      -59.816055
