20
 generated by VMD
 C         -58.997753     -159.756470      -57.112225
 N         -58.277370     -160.107040      -57.999607
 H         -58.965012     -161.162231      -54.865955
 H         -59.604408     -159.445343      -56.252193
 C         -59.491386     -161.793304      -54.173008
 C         -59.021324     -162.128021      -52.826828
 C         -60.848122     -162.123291      -54.575470
 C         -59.984119     -161.921844      -51.649143
 C         -61.820831     -161.963562      -53.420212
 C         -61.355148     -162.448914      -52.089935
 H         -58.110287     -161.587738      -52.754940
 H         -58.564323     -163.159744      -52.731926
 H         -61.127529     -161.549332      -55.514519
 H         -60.918068     -163.168320      -54.845032
 H         -60.093647     -160.788406      -51.402302
 H         -59.775898     -162.580078      -50.896622
 H         -62.706512     -162.569443      -53.639332
 H         -62.025944     -160.914719      -53.401402
 H         -62.045547     -162.155319      -51.352726
 H         -61.355156     -163.547791      -52.079350
