20
 generated by VMD
 C         -30.178440      -80.192062      -26.454447
 N         -29.443439      -79.279800      -26.256645
 H         -28.412436      -82.806969      -25.489651
 H         -30.597498      -81.124573      -26.387972
 C         -29.079672      -82.887489      -24.696241
 C         -28.972462      -81.990517      -23.501787
 C         -30.086309      -84.006584      -24.694710
 C         -30.293699      -81.950371      -22.616362
 C         -31.167645      -83.983391      -23.637653
 C         -30.777956      -83.354530      -22.278593
 H         -28.701994      -80.959686      -23.829811
 H         -28.186144      -82.510612      -22.993547
 H         -30.649220      -84.127228      -25.603762
 H         -29.431099      -84.910957      -24.546265
 H         -31.179918      -81.403748      -23.061745
 H         -30.077936      -81.230835      -21.761246
 H         -31.385075      -84.974037      -23.327444
 H         -32.114250      -83.600281      -24.131077
 H         -31.626520      -83.086945      -21.564327
 H         -29.962807      -83.874443      -21.750851
