20
 generated by VMD
 C         -38.172729     -107.977745      -36.911476
 N         -38.420246     -108.373161      -37.966248
 H         -41.316227     -108.791664      -35.438026
 H         -37.784458     -107.564445      -35.964298
 C         -41.218170     -109.671471      -34.732601
 C         -40.338158     -110.740288      -35.059586
 C         -42.421700     -109.752907      -33.992775
 C         -40.080418     -111.557312      -33.787292
 C         -42.172462     -110.631523      -32.804813
 C         -41.438251     -111.973053      -33.111206
 H         -39.371346     -110.323433      -35.449978
 H         -40.884914     -111.352364      -35.856037
 H         -42.802135     -108.715134      -33.776787
 H         -43.093643     -110.173096      -34.689426
 H         -39.551060     -111.092300      -33.026222
 H         -39.584442     -112.518745      -34.190056
 H         -43.202911     -110.926010      -32.332336
 H         -41.685673     -109.917145      -32.037617
 H         -41.180153     -112.546280      -32.161427
 H         -41.978115     -112.705261      -33.580864
