20
 generated by VMD
 C         -50.713421     -128.440460      -41.975693
 N         -51.842243     -128.405380      -41.855804
 H         -47.754723     -128.058716      -40.718891
 H         -49.738827     -128.723114      -42.286022
 C         -46.937630     -127.461037      -40.729050
 C         -45.650673     -128.087265      -40.176693
 C         -46.953396     -126.050163      -41.237450
 C         -44.460506     -127.578293      -40.812397
 C         -45.599495     -125.654221      -41.891640
 C         -44.366127     -126.104660      -41.132858
 H         -45.589081     -129.224915      -40.293171
 H         -45.541573     -127.959824      -39.134991
 H         -47.528530     -126.017761      -42.218605
 H         -47.135414     -125.250610      -40.491337
 H         -44.520790     -128.060379      -41.805817
 H         -43.578480     -127.749573      -40.149635
 H         -45.512291     -124.604294      -42.094578
 H         -45.525734     -126.193047      -42.842068
 H         -43.468479     -126.020691      -41.762775
 H         -44.153736     -125.427567      -40.277164
