20
 generated by VMD
 C         -69.046837     -187.179398      -67.803154
 N         -67.930687     -187.428085      -67.590820
 H         -68.226250     -186.984360      -64.174873
 H         -70.055557     -186.970703      -68.114998
 C         -69.055870     -187.443573      -63.632668
 C         -68.986763     -187.922974      -62.150730
 C         -70.393913     -186.900208      -64.076302
 C         -70.231400     -188.609253      -61.700462
 C         -71.596870     -187.894791      -63.671139
 C         -71.611244     -188.208389      -62.240860
 H         -68.737549     -186.998123      -61.521721
 H         -68.127747     -188.608170      -61.880157
 H         -70.460312     -185.816040      -63.730984
 H         -70.410782     -186.726776      -65.143532
 H         -70.280289     -188.572983      -60.567780
 H         -70.176208     -189.675140      -61.968075
 H         -71.607094     -188.807205      -64.334793
 H         -72.576355     -187.413437      -64.006134
 H         -72.070068     -187.463821      -61.624035
 H         -72.226723     -189.065979      -61.932739
