20
 generated by VMD
 C         -17.139452      -47.985157       -7.068362
 N         -16.660986      -46.997082       -6.940372
 H         -16.694126      -48.556362      -10.353154
 H         -15.531919      -48.554844      -11.738462
 C         -16.361919      -48.020584      -11.252048
 C         -15.977242      -46.618073      -10.907395
 C         -17.546774      -47.854313      -12.196895
 C         -15.709431      -45.570591      -11.965415
 C         -17.184898      -46.977383      -13.408784
 C         -16.800625      -45.551762      -12.969142
 H         -15.126860      -46.707100      -10.270037
 H         -16.797407      -46.281841      -10.265684
 H         -17.890150      -48.803493      -12.532861
 H         -18.397739      -47.515903      -11.640014
 H         -14.812862      -45.863747      -12.525784
 H         -15.444685      -44.590427      -11.554887
 H         -18.121471      -46.872826      -14.106110
 H         -16.349476      -47.392643      -14.012103
 H         -16.537636      -44.972836      -13.877213
 H         -17.751917      -45.007050      -12.601453
