20
 generated by VMD
 C         -80.271751     -205.543121      -71.852715
 N         -79.775764     -206.560745      -71.798645
 H         -77.087402     -203.696594      -70.486649
 H         -80.596466     -204.595886      -72.096481
 C         -76.291237     -204.274902      -70.969383
 C         -75.000748     -203.601074      -71.243088
 C         -76.336044     -205.696899      -70.624138
 C         -74.377853     -203.526978      -69.916946
 C         -75.421288     -205.869385      -69.374512
 C         -74.207031     -204.905609      -69.246338
 H         -75.070938     -202.562393      -71.538216
 H         -74.301880     -204.121902      -71.932091
 H         -77.317223     -206.160904      -70.523201
 H         -75.691399     -206.306107      -71.289955
 H         -74.799393     -202.671692      -69.328033
 H         -73.263992     -203.160202      -70.071106
 H         -75.040680     -206.868057      -69.305412
 H         -76.097748     -205.707779      -68.545532
 H         -73.823654     -204.854919      -68.195801
 H         -73.419556     -205.530136      -69.688049
