20
 generated by VMD
 C         -50.182205     -131.067520      -46.475376
 N         -50.318390     -131.357254      -47.641621
 H         -48.307362     -131.963745      -44.132847
 H         -50.409805     -130.697342      -45.466110
 C         -48.941307     -132.221603      -43.249264
 C         -49.390030     -133.677933      -43.188526
 C         -48.620674     -131.519821      -41.908440
 C         -48.671291     -134.478317      -42.173336
 C         -47.849060     -132.451477      -40.978275
 C         -48.493473     -133.769302      -40.780365
 H         -49.328594     -134.210266      -44.224380
 H         -50.434811     -133.705399      -42.963482
 H         -48.002289     -130.549194      -42.174736
 H         -49.636665     -131.262375      -41.619308
 H         -47.623222     -134.700378      -42.402378
 H         -49.166164     -135.463791      -41.974304
 H         -47.741440     -131.880493      -40.039639
 H         -46.821613     -132.579300      -41.533615
 H         -48.026386     -134.301498      -39.948071
 H         -49.515594     -133.642456      -40.254845
