20
 generated by VMD
 C         -28.322138      -84.080711      -27.179417
 N         -27.536091      -83.427437      -26.567898
 H         -31.856627      -84.230614      -26.078854
 H         -28.939047      -84.694557      -27.720715
 C         -31.676607      -85.198349      -25.761436
 C         -31.437344      -85.461578      -24.242361
 C         -31.960106      -86.551971      -26.523388
 C         -32.787781      -85.946426      -23.699265
 C         -33.213009      -87.136116      -25.957205
 C         -33.223846      -87.127678      -24.437157
 H         -31.087109      -84.484665      -23.831093
 H         -30.581285      -86.055122      -24.019638
 H         -32.279602      -86.353401      -27.527479
 H         -31.109600      -87.229935      -26.536755
 H         -33.548649      -85.122261      -23.774471
 H         -32.481930      -86.185944      -22.620028
 H         -33.362358      -88.211304      -26.344877
 H         -34.159420      -86.577133      -26.223021
 H         -34.267559      -87.538719      -24.071627
 H         -32.559185      -88.005341      -24.200321
