20
 generated by VMD
 C         -78.181648     -204.283600      -69.403000
 N         -79.045662     -203.732391      -70.019753
 H         -75.810669     -202.705826      -67.803169
 H         -77.276924     -204.791809      -69.094856
 C         -75.338066     -202.359299      -68.705994
 C         -75.641609     -200.969620      -69.233826
 C         -74.147026     -203.209274      -68.923790
 C         -74.904823     -200.864807      -70.652481
 C         -73.024872     -202.412766      -69.496475
 C         -73.417839     -201.185516      -70.442711
 H         -75.382591     -200.125961      -68.521080
 H         -76.679123     -200.903717      -69.399422
 H         -73.790199     -203.655930      -67.938118
 H         -74.275383     -204.068451      -69.576447
 H         -74.910057     -199.806152      -71.048935
 H         -75.348534     -201.572784      -71.383209
 H         -72.445518     -203.157471      -70.028168
 H         -72.540337     -201.897202      -68.716515
 H         -72.969521     -200.338135      -70.192986
 H         -73.060471     -201.419495      -71.447716
