20
 generated by VMD
 C          -7.688150      -23.557560        2.026003
 N          -7.617807      -23.171181        3.057680
 H          -9.056831      -23.461981       -1.673627
 H          -9.538276      -22.363047       -2.998436
 C          -8.642701      -22.846178       -2.486252
 C          -7.717124      -23.642939       -3.339636
 C          -7.804651      -21.798649       -1.726000
 C          -6.969487      -22.843386       -4.282004
 C          -7.045872      -20.891348       -2.688999
 C          -6.129610      -21.736240       -3.612504
 H          -8.408828      -24.319815       -3.968586
 H          -7.163045      -24.390085       -2.810039
 H          -8.527741      -21.141087       -1.204889
 H          -7.070009      -22.249100       -1.061689
 H          -7.627067      -22.309729       -5.025912
 H          -6.244138      -23.500250       -4.772840
 H          -6.340890      -20.293339       -2.087815
 H          -7.769893      -20.311462       -3.279048
 H          -5.692774      -21.132669       -4.410765
 H          -5.360616      -22.187782       -3.023701
