20
 generated by VMD
 C         -29.343477      -87.988655      -25.000790
 N         -28.857594      -88.075325      -26.026976
 H         -31.223515      -89.286629      -27.398338
 H         -29.709135      -88.000916      -23.911684
 C         -32.261517      -89.499123      -27.244595
 C         -32.837627      -89.452705      -25.783211
 C         -33.295437      -89.305504      -28.356676
 C         -33.497410      -88.041000      -25.750141
 C         -34.157120      -88.013374      -28.134186
 C         -34.651363      -87.980904      -26.704840
 H         -32.076973      -89.643654      -25.023811
 H         -33.533020      -90.240860      -25.668612
 H         -33.093540      -89.223923      -29.404957
 H         -34.015034      -90.145508      -28.381306
 H         -32.714165      -87.298820      -25.959972
 H         -33.785851      -87.908302      -24.655056
 H         -34.985149      -87.959602      -28.815145
 H         -33.519428      -87.165779      -28.413685
 H         -35.107738      -87.094337      -26.492012
 H         -35.278065      -88.819153      -26.540277
