20
 generated by VMD
 C         -78.463737     -209.324738      -77.017944
 N         -78.237663     -209.231659      -78.117218
 H         -78.958420     -211.122467      -73.855232
 H         -78.691383     -209.422531      -75.982941
 C         -79.052078     -211.852814      -73.117287
 C         -77.921463     -212.092590      -72.136971
 C         -80.246895     -212.759674      -72.871246
 C         -78.200943     -212.452652      -70.677307
 C         -80.552872     -213.104767      -71.356239
 C         -79.270912     -213.531174      -70.535667
 H         -77.235870     -211.293137      -72.098328
 H         -77.330978     -212.892242      -72.573608
 H         -81.145432     -212.324966      -73.363113
 H         -80.064445     -213.749802      -73.236977
 H         -78.715088     -211.585770      -70.194992
 H         -77.202728     -212.513855      -70.230301
 H         -81.258080     -213.933487      -71.397896
 H         -80.936584     -212.204651      -70.978081
 H         -79.527885     -213.663071      -69.503441
 H         -79.079948     -214.506363      -70.985733
