20
 generated by VMD
 C         -47.886467     -139.737122      -46.086292
 N         -46.761639     -139.317429      -45.965595
 H         -50.985989     -138.953018      -44.952568
 H         -48.949200     -139.788696      -46.112816
 C         -51.966522     -139.229752      -45.290760
 C         -51.946545     -139.410812      -46.773262
 C         -53.222706     -138.860931      -44.598759
 C         -53.037815     -140.375732      -47.174923
 C         -54.177826     -139.885376      -44.957436
 C         -54.329247     -140.087067      -46.406864
 H         -50.933533     -139.845016      -47.081448
 H         -51.942005     -138.478745      -47.399181
 H         -53.118313     -138.715973      -43.518536
 H         -53.601658     -137.900360      -44.858406
 H         -52.614014     -141.397736      -46.987057
 H         -53.155293     -140.261765      -48.280113
 H         -55.012966     -139.649887      -44.388817
 H         -53.854595     -140.906570      -44.548401
 H         -55.065853     -141.006409      -46.617485
 H         -54.759937     -139.240616      -47.026379
