20
 generated by VMD
 C         -62.625805     -172.156921      -55.220009
 N         -61.857361     -172.965271      -55.347359
 H         -61.635189     -171.204193      -57.898064
 H         -63.372021     -171.363037      -55.230072
 C         -62.427464     -170.533859      -58.234138
 C         -62.328865     -169.097565      -58.069424
 C         -63.735214     -171.191666      -58.531773
 C         -63.687305     -168.258606      -58.287205
 C         -64.968475     -170.211456      -58.742580
 C         -64.939720     -168.966492      -57.790035
 H         -61.541679     -168.769165      -58.647274
 H         -62.035416     -168.908218      -56.929573
 H         -63.563404     -171.725586      -59.446163
 H         -64.075478     -171.816956      -57.827171
 H         -63.630768     -167.916977      -59.339619
 H         -63.483120     -167.264099      -57.762623
 H         -65.940361     -170.758133      -58.590755
 H         -65.062263     -169.795364      -59.849865
 H         -65.783249     -168.308578      -57.869640
 H         -64.867020     -169.366440      -56.797157
