20
 generated by VMD
 C         -39.530960     -105.566414      -37.243168
 N         -40.426506     -104.881386      -37.005505
 H         -39.206322     -108.697746      -35.476204
 H         -38.692841     -106.065819      -37.709740
 C         -39.402798     -108.691261      -34.407539
 C         -38.361938     -108.330635      -33.380562
 C         -40.690540     -109.396965      -34.100281
 C         -39.001808     -108.375168      -31.929554
 C         -41.015945     -109.508041      -32.507702
 C         -39.839863     -109.596703      -31.653183
 H         -37.886051     -107.443611      -33.652809
 H         -37.630283     -109.128670      -33.400436
 H         -41.609489     -109.167084      -34.570110
 H         -40.418560     -110.436897      -34.477093
 H         -39.499020     -107.405716      -31.825357
 H         -38.199593     -108.343361      -31.235693
 H         -41.718166     -110.320015      -32.395477
 H         -41.555084     -108.598694      -32.252735
 H         -40.112442     -109.637077      -30.644110
 H         -39.258766     -110.492599      -31.913692
