20
 generated by VMD
 C         -45.116863     -122.913834      -35.414627
 N         -45.576202     -123.966362      -35.141083
 H         -45.014809     -122.579407      -38.569874
 H         -44.800480     -121.836670      -35.615810
 C         -44.843102     -121.697235      -39.207714
 C         -43.408310     -121.391266      -39.588951
 C         -45.990746     -120.700798      -39.569710
 C         -43.347565     -120.713257      -40.998569
 C         -45.803436     -120.053604      -40.901604
 C         -44.360531     -119.573677      -41.069958
 H         -42.754612     -122.312813      -39.657127
 H         -42.976265     -120.691162      -38.953007
 H         -47.044220     -121.077980      -39.477287
 H         -45.821316     -120.071419      -38.609993
 H         -43.523113     -121.404999      -41.737755
 H         -42.312130     -120.353622      -41.122540
 H         -46.572365     -119.357758      -41.062565
 H         -46.066296     -120.650185      -41.765156
 H         -44.324928     -118.922180      -41.979843
 H         -44.237747     -118.904312      -40.155949
