20
 generated by VMD
 C         -58.365566     -159.105194      -57.725174
 N         -59.353500     -158.404236      -57.770229
 H         -59.570007     -159.587616      -54.185036
 H         -57.505779     -159.811829      -57.691833
 C         -59.470276     -160.617126      -53.751312
 C         -58.491154     -160.729630      -52.709942
 C         -60.646175     -161.403122      -53.890526
 C         -59.307854     -160.935394      -51.393089
 C         -61.284863     -161.770035      -52.511612
 C         -60.246925     -162.031998      -51.421352
 H         -57.879391     -159.862259      -52.558395
 H         -57.903736     -161.700073      -52.992447
 H         -61.486561     -160.904373      -54.452995
 H         -60.335575     -162.150787      -54.596184
 H         -59.714207     -159.926147      -51.037590
 H         -58.602985     -161.037888      -50.458519
 H         -61.872452     -162.638229      -52.656017
 H         -61.986012     -161.005325      -52.213490
 H         -60.675163     -162.223877      -50.474022
 H         -59.743153     -163.026901      -51.538597
