20
 generated by VMD
 C         -78.691864     -204.420212      -70.720413
 N         -79.722511     -204.161469      -70.193855
 H         -76.401031     -203.215363      -68.186806
 H         -77.728119     -204.751678      -70.996590
 C         -75.496117     -202.692322      -68.494125
 C         -75.796555     -201.651596      -69.547600
 C         -74.283455     -203.534424      -68.778358
 C         -74.814026     -201.618301      -70.784805
 C         -73.068222     -202.868317      -69.315559
 C         -73.234467     -201.825912      -70.389694
 H         -75.864601     -200.594864      -69.187386
 H         -76.790115     -201.965591      -69.954613
 H         -74.142944     -204.385193      -68.049911
 H         -74.645271     -204.190262      -69.711609
 H         -74.924789     -200.589417      -71.233612
 H         -75.208778     -202.329956      -71.532593
 H         -72.470078     -203.615677      -69.711899
 H         -72.417717     -202.457123      -68.547050
 H         -72.870140     -200.785019      -70.034073
 H         -72.595062     -201.971054      -71.257912
