20
 generated by VMD
 C         -23.242599      -53.908695      -14.858450
 N         -24.279184      -53.392651      -15.155081
 H         -19.947557      -54.661678      -15.581239
 H         -22.409704      -54.545677      -14.366151
 C         -19.553648      -55.242729      -14.609502
 C         -19.015680      -54.207596      -13.588737
 C         -18.937199      -56.626316      -14.834367
 C         -18.431984      -55.068790      -12.464030
 C         -17.927404      -57.098820      -13.883298
 C         -17.308075      -55.984848      -12.987844
 H         -19.901529      -53.663109      -13.290521
 H         -18.290722      -53.595654      -14.107801
 H         -19.801739      -57.363968      -15.015282
 H         -18.449823      -56.510452      -15.786194
 H         -19.273149      -55.668388      -12.031322
 H         -17.921122      -54.447948      -11.732884
 H         -17.079466      -57.673122      -14.321820
 H         -18.440464      -57.795498      -13.252610
 H         -16.799236      -56.455456      -12.149249
 H         -16.614981      -55.385159      -13.555534
