20
 generated by VMD
 C          -6.866619      -23.310888        2.898803
 N          -6.916946      -22.592772        2.046586
 H          -8.046380      -22.800871       -0.673808
 H          -9.129145      -22.211760       -1.932073
 C          -8.028166      -22.306355       -1.635685
 C          -7.132884      -23.010025       -2.611213
 C          -7.544302      -20.879230       -1.354428
 C          -7.026265      -22.328173       -3.921385
 C          -7.495807      -20.113514       -2.711869
 C          -6.579392      -20.854464       -3.736636
 H          -7.521341      -24.059061       -2.862473
 H          -6.219817      -23.243813       -2.110939
 H          -8.337946      -20.455067       -0.713860
 H          -6.546050      -20.866282       -0.913160
 H          -8.072814      -22.357656       -4.353297
 H          -6.246541      -22.798885       -4.563184
 H          -7.061148      -19.106634       -2.519211
 H          -8.505037      -20.084885       -3.175417
 H          -6.553792      -20.306896       -4.734517
 H          -5.513797      -20.920282       -3.363594
