20
 generated by VMD
 C         -39.409592      -99.088196      -28.152737
 N         -38.751911      -99.963181      -27.796911
 H         -37.525696      -97.864609      -30.913376
 H         -40.151684      -98.387123      -28.516998
 C         -36.387459      -98.012886      -30.760603
 C         -35.690666      -98.504616      -31.979021
 C         -35.610474      -97.605873      -29.503710
 C         -34.484035      -97.573570      -32.339027
 C         -34.423252      -96.765884      -29.952761
 C         -33.544609      -97.380066      -31.229557
 H         -36.334385      -98.269913      -32.800854
 H         -35.346821      -99.573349      -32.026070
 H         -36.196995      -97.092575      -28.748146
 H         -35.152931      -98.537392      -29.051073
 H         -34.799728      -96.548141      -32.724876
 H         -33.939972      -97.957932      -33.163208
 H         -33.778481      -96.637253      -29.120283
 H         -34.935593      -95.782494      -30.079601
 H         -32.648438      -96.776489      -31.527081
 H         -33.147320      -98.280922      -30.833794
