20
 generated by VMD
 C         -38.200050     -108.042519      -37.319607
 N         -38.869419     -107.423676      -38.064999
 H         -40.664211     -108.240860      -34.664314
 H         -37.809185     -108.547638      -36.412449
 C         -40.790966     -109.325455      -34.456314
 C         -39.920353     -110.464806      -34.682240
 C         -42.182076     -109.559784      -34.046371
 C         -39.828098     -111.235886      -33.323792
 C         -42.196983     -110.387978      -32.766506
 C         -41.328533     -111.726532      -32.812504
 H         -39.015659     -109.936928      -34.960590
 H         -40.316578     -110.941467      -35.575935
 H         -42.555954     -108.572144      -33.790573
 H         -42.742664     -110.068916      -34.842007
 H         -39.445412     -110.618904      -32.409092
 H         -39.208439     -112.100380      -33.497272
 H         -43.187828     -110.644775      -32.428856
 H         -41.770573     -109.763115      -31.961084
 H         -41.350338     -112.221802      -31.928503
 H         -41.787365     -112.485191      -33.537582
