20
 generated by VMD
 C         -69.785690     -196.512039      -65.347931
 N         -68.627525     -196.611526      -65.424675
 H         -72.172615     -194.088333      -64.971161
 H         -70.821251     -196.680176      -65.312317
 C         -72.273743     -193.846542      -66.048172
 C         -72.301888     -192.455750      -66.530777
 C         -72.944115     -194.831192      -66.950050
 C         -73.784332     -192.069778      -66.700706
 C         -74.291557     -194.410324      -67.335884
 C         -74.352165     -192.942581      -67.781395
 H         -71.942497     -192.421539      -67.630928
 H         -71.838593     -191.791229      -65.784149
 H         -72.337372     -194.901306      -67.861977
 H         -73.143471     -195.819611      -66.527718
 H         -73.766388     -191.007172      -66.994934
 H         -74.310928     -192.147629      -65.719513
 H         -74.968544     -194.530670      -66.442741
 H         -74.720192     -195.018250      -68.103912
 H         -73.872917     -192.820984      -68.692680
 H         -75.516678     -192.652222      -67.868217
