20
 generated by VMD
 C         -51.544239     -145.832474      -43.946934
 N         -51.419941     -146.422638      -44.911243
 H         -53.497387     -145.041107      -46.656525
 H         -51.547760     -145.182724      -43.070549
 C         -53.743652     -144.554153      -47.593220
 C         -52.907055     -144.411057      -48.723808
 C         -54.824932     -143.451035      -47.470165
 C         -53.476219     -143.951752      -49.998798
 C         -55.416630     -143.038498      -48.760818
 C         -54.293240     -142.722458      -49.760727
 H         -52.294369     -145.312775      -49.088074
 H         -52.136261     -143.618286      -48.468277
 H         -55.559330     -143.669891      -46.707535
 H         -54.370380     -142.605286      -46.945541
 H         -54.101738     -144.720337      -50.450760
 H         -52.751926     -143.756607      -50.755856
 H         -56.009411     -142.107895      -48.874046
 H         -56.165073     -143.806900      -49.132187
 H         -54.644234     -142.407303      -50.762932
 H         -53.599483     -141.856766      -49.272728
