20
 generated by VMD
 C         -23.024675      -55.320652      -16.788134
 N         -23.532583      -54.797821      -15.807846
 H         -19.337721      -55.339565      -15.563530
 H         -22.634985      -55.750198      -17.777731
 C         -19.298157      -56.229664      -14.853316
 C         -19.839567      -56.169453      -13.521678
 C         -18.378036      -57.360443      -15.136024
 C         -20.630438      -57.407089      -13.237415
 C         -19.030745      -58.662838      -14.685743
 C         -19.750509      -58.647659      -13.317495
 H         -20.591137      -55.363949      -13.487561
 H         -19.008188      -55.944958      -12.884544
 H         -18.117901      -57.336887      -16.269903
 H         -17.482178      -57.319859      -14.530946
 H         -21.501471      -57.476856      -13.897169
 H         -20.992327      -57.374039      -12.216989
 H         -18.293877      -59.471920      -14.572987
 H         -19.679173      -58.972298      -15.525354
 H         -20.364586      -59.577847      -13.248635
 H         -19.088953      -58.589302      -12.432432
