20
 generated by VMD
 C         -44.569950     -122.293869      -36.001846
 N         -43.976276     -121.299644      -35.736588
 H         -44.897736     -122.676956      -39.922226
 H         -45.023823     -123.239349      -36.440552
 C         -44.893795     -121.650261      -39.603519
 C         -43.492825     -121.213882      -39.392632
 C         -45.977753     -120.708328      -39.295498
 C         -43.201946     -119.902893      -40.110313
 C         -45.804237     -119.342033      -39.906273
 C         -44.358528     -118.828148      -39.804264
 H         -42.895420     -121.927368      -39.823715
 H         -43.229202     -121.115822      -38.331196
 H         -47.043385     -121.003227      -39.522770
 H         -45.867371     -120.614235      -38.169529
 H         -43.022640     -120.159027      -41.155376
 H         -42.244457     -119.663071      -39.680984
 H         -46.421349     -118.547653      -39.335426
 H         -46.118443     -119.460258      -40.970882
 H         -44.243454     -117.916687      -40.491676
 H         -44.195442     -118.409073      -38.745316
