20
 generated by VMD
 C         -68.593483     -192.892349      -66.203865
 N         -68.307449     -193.300354      -67.231850
 H         -69.978401     -189.825668      -65.423103
 H         -69.115677     -192.365005      -65.413429
 C         -70.919258     -190.364990      -65.269424
 C         -71.624413     -190.811295      -66.497345
 C         -71.560257     -190.608337      -63.931004
 C         -72.620293     -192.017105      -66.081337
 C         -73.047195     -190.620224      -64.012108
 C         -73.656883     -191.586365      -65.003342
 H         -70.883591     -191.247742      -67.115280
 H         -72.199913     -189.951492      -66.915268
 H         -71.223526     -191.610519      -63.595673
 H         -71.348022     -189.739731      -63.323082
 H         -72.002533     -192.931931      -65.868553
 H         -73.204994     -192.467941      -66.943550
 H         -73.322044     -189.648422      -64.368538
 H         -73.559120     -190.765137      -63.083099
 H         -74.007217     -192.486206      -64.383636
 H         -74.490387     -191.250854      -65.590828
