20
 generated by VMD
 C         -39.986370     -107.353447      -37.813686
 N         -39.127953     -106.601349      -37.839733
 H         -39.141098     -108.566391      -35.166451
 H         -40.702675     -108.121849      -37.534725
 C         -39.672852     -109.057556      -34.316071
 C         -38.960361     -110.124214      -33.457088
 C         -41.192909     -108.973595      -34.191792
 C         -39.727741     -110.937508      -32.411823
 C         -41.791058     -109.633865      -32.967216
 C         -41.250008     -111.068344      -32.815266
 H         -38.171421     -109.465553      -32.903538
 H         -38.347073     -110.685844      -34.203846
 H         -41.453053     -107.972672      -34.119694
 H         -41.630928     -109.294884      -35.154377
 H         -39.685482     -110.415260      -31.466545
 H         -39.143185     -111.939491      -32.171940
 H         -42.870720     -109.819405      -33.082458
 H         -41.520393     -109.075546      -32.127815
 H         -41.888069     -111.652458      -32.055759
 H         -41.346973     -111.625740      -33.670849
