20
 generated by VMD
 C         -38.651192     -113.722092      -35.623302
 N         -37.994682     -114.688637      -35.692333
 H         -41.300613     -114.401840      -35.985676
 H         -39.319267     -112.913857      -35.658672
 C         -42.279831     -114.602081      -36.308937
 C         -42.479130     -114.561172      -37.821743
 C         -43.476620     -114.370499      -35.394058
 C         -43.711658     -115.491028      -38.243149
 C         -44.659031     -115.271576      -35.774876
 C         -44.879402     -115.292969      -37.253647
 H         -41.634201     -114.906601      -38.416382
 H         -42.665470     -113.566620      -38.164036
 H         -43.159679     -114.576324      -34.372810
 H         -43.632217     -113.305336      -35.427082
 H         -43.408371     -116.513901      -38.086620
 H         -44.122917     -115.393059      -39.275616
 H         -45.464722     -115.045685      -35.086411
 H         -44.397213     -116.293495      -35.450550
 H         -45.599571     -115.948471      -37.614346
 H         -45.289291     -114.375725      -37.480434
