20
 generated by VMD
 C         -79.310699     -207.195389      -75.749054
 N         -80.221611     -207.068680      -75.046471
 H         -77.360245     -208.266556      -73.132301
 H         -78.454826     -207.139832      -76.355751
 C         -77.161034     -208.759781      -72.240181
 C         -75.930473     -208.228119      -71.528259
 C         -77.996712     -209.806335      -71.585716
 C         -76.233116     -207.888565      -70.078011
 C         -78.270798     -209.556091      -70.067566
 C         -76.918381     -209.225586      -69.367676
 H         -75.629646     -207.337799      -72.110855
 H         -75.065697     -208.929123      -71.573486
 H         -78.983643     -210.027618      -72.048264
 H         -77.436302     -210.742264      -71.536888
 H         -76.845276     -206.945389      -70.044632
 H         -75.247276     -207.666794      -69.625877
 H         -78.785194     -210.504395      -69.638969
 H         -78.924904     -208.710617      -69.907402
 H         -77.022156     -208.747162      -68.419693
 H         -76.265343     -210.089508      -69.149620
