20
 generated by VMD
 C          -1.223731      -12.530290        1.301075
 N          -0.741241      -12.713174        0.325740
 H          -4.161321      -12.948392        1.200305
 H          -5.887383      -13.240585        0.780176
 C          -4.969719      -13.664440        1.127193
 C          -5.275046      -14.059012        2.602486
 C          -4.538292      -14.924592        0.398096
 C          -6.410103      -15.086694        2.660484
 C          -5.522567      -16.078157        0.485398
 C          -6.015972      -16.353340        1.885580
 H          -5.535623      -13.171097        3.263096
 H          -4.391867      -14.379807        3.137057
 H          -4.314716      -14.799194       -0.627324
 H          -3.655646      -15.281650        0.877101
 H          -7.314843      -14.653865        2.205035
 H          -6.683619      -15.361653        3.714233
 H          -5.000190      -16.975666        0.068708
 H          -6.354525      -15.866642       -0.225122
 H          -6.879423      -16.989002        1.805879
 H          -5.287263      -16.948463        2.423017
