20
 generated by VMD
 C         -29.330091      -90.350227      -25.025457
 N         -29.030935      -91.408539      -25.276449
 H         -32.383076      -90.949692      -26.893381
 H         -29.702360      -89.287773      -24.966454
 C         -33.143074      -90.761215      -27.623812
 C         -34.431175      -91.596451      -27.495712
 C         -33.079903      -89.718681      -28.683424
 C         -35.548477      -90.552711      -27.346697
 C         -34.113567      -88.620430      -28.321241
 C         -35.464813      -89.434982      -28.388695
 H         -34.382362      -92.391670      -26.749592
 H         -34.524311      -92.114502      -28.380901
 H         -32.068699      -89.316711      -28.658838
 H         -33.332386      -90.142479      -29.690046
 H         -35.406837      -90.304161      -26.313835
 H         -36.488934      -91.122704      -27.451336
 H         -34.179214      -87.778427      -29.033749
 H         -34.122009      -88.100433      -27.371738
 H         -36.277565      -88.775101      -27.994633
 H         -35.750202      -89.475868      -29.459141
