20
 generated by VMD
 C         -68.558540     -189.252151      -67.270149
 N         -67.464653     -189.269104      -66.945572
 H         -68.464333     -188.103577      -63.505787
 H         -69.582664     -189.370575      -67.549591
 C         -69.498672     -188.281891      -63.328609
 C         -70.116722     -189.657822      -63.477161
 C         -70.460770     -187.281204      -62.857933
 C         -71.385544     -189.678116      -64.321548
 C         -71.838669     -187.279602      -63.615532
 C         -72.428421     -188.739395      -63.870453
 H         -70.257729     -190.003006      -62.461517
 H         -69.445038     -190.439621      -63.874352
 H         -70.702621     -187.522736      -61.817596
 H         -69.994736     -186.244263      -63.095753
 H         -71.759415     -190.756226      -64.351387
 H         -71.125610     -189.531601      -65.348541
 H         -71.545013     -186.811203      -64.552185
 H         -72.720734     -186.717728      -63.146721
 H         -72.930603     -189.092697      -62.982929
 H         -73.381874     -188.613525      -64.511948
