20
 generated by VMD
 C         -80.324654     -206.849716      -74.011894
 N         -80.549187     -206.607773      -75.142761
 H         -76.605263     -207.622238      -73.083244
 H         -80.003098     -207.232300      -73.044571
 C         -76.482651     -207.632431      -71.934387
 C         -75.374817     -206.749619      -71.438538
 C         -77.309891     -208.643402      -71.156006
 C         -75.489311     -206.627472      -69.914139
 C         -77.360268     -208.241196      -69.701729
 C         -75.973137     -207.874664      -69.130577
 H         -75.390900     -205.862213      -72.078133
 H         -74.355202     -207.047531      -71.588844
 H         -78.365250     -208.674271      -71.568764
 H         -76.917122     -209.677551      -71.314232
 H         -76.183197     -205.798279      -69.741791
 H         -74.454750     -206.383636      -69.529305
 H         -77.810356     -209.115097      -69.076294
 H         -78.131409     -207.488388      -69.714249
 H         -76.010658     -207.665558      -68.107201
 H         -75.106758     -208.589081      -69.151176
