20
 generated by VMD
 C         -21.761541      -66.070572      -16.687355
 N         -20.904747      -66.628143      -16.138420
 H         -24.320026      -63.957348      -18.519201
 H         -22.447865      -65.425995      -17.056017
 C         -24.519182      -65.079796      -18.550823
 C         -24.339828      -65.599541      -19.958330
 C         -25.436943      -65.832909      -17.664631
 C         -24.363415      -67.052902      -19.996334
 C         -25.257895      -67.320786      -17.814142
 C         -25.512493      -67.773407      -19.255743
 H         -23.434803      -65.249191      -20.412704
 H         -25.181721      -65.220932      -20.476526
 H         -25.133032      -65.647095      -16.560959
 H         -26.504951      -65.609398      -17.941805
 H         -23.471626      -67.550667      -19.592875
 H         -24.410656      -67.382454      -21.073063
 H         -25.986561      -67.858429      -17.161726
 H         -24.236019      -67.535141      -17.396454
 H         -25.592817      -68.825165      -19.354595
 H         -26.524136      -67.357376      -19.527079
