20
 generated by VMD
 C         -59.306572     -168.318970      -55.370903
 N         -58.438652     -168.896057      -54.797714
 H         -62.379459     -169.420059      -55.965469
 H         -60.064953     -167.922119      -56.052048
 C         -62.605713     -168.397324      -56.389904
 C         -62.763657     -168.375839      -57.844940
 C         -62.863441     -167.174530      -55.561092
 C         -64.013756     -167.606628      -58.359184
 C         -64.144058     -166.417709      -55.955006
 C         -64.090096     -166.245789      -57.618382
 H         -62.757076     -169.485458      -58.104790
 H         -61.830017     -167.933411      -58.220783
 H         -62.829597     -167.391388      -54.569149
 H         -61.978340     -166.538162      -55.751202
 H         -64.941597     -168.247650      -58.410110
 H         -63.701900     -167.493713      -59.407852
 H         -64.276932     -165.344330      -55.719173
 H         -65.088287     -167.020905      -55.665245
 H         -65.014557     -165.695679      -57.823723
 H         -63.386932     -165.544708      -57.954140
