20
 generated by VMD
 C         -40.200706     -100.228516      -30.208969
 N         -40.874187     -100.414749      -31.146051
 H         -37.184864     -102.154709      -30.774073
 H         -39.469845     -100.380692      -29.340975
 C         -36.574219     -101.341316      -30.903479
 C         -36.437340     -100.773849      -32.275700
 C         -35.331905     -101.185783      -29.927208
 C         -35.979614      -99.294701      -32.295189
 C         -34.903767      -99.797501      -30.090599
 C         -34.661671      -99.206169      -31.597683
 H         -37.401848     -100.910469      -32.754704
 H         -35.733055     -101.483009      -32.756516
 H         -35.815372     -101.314934      -28.982964
 H         -34.583546     -101.932983      -30.123522
 H         -36.727032      -98.697899      -31.803129
 H         -35.898418      -98.972816      -33.375538
 H         -33.840454      -99.685944      -29.612652
 H         -35.605297      -99.133575      -29.599771
 H         -34.373878      -98.209198      -31.454758
 H         -33.924160      -99.767387      -32.192287
