20
 generated by VMD
 C         -47.894596     -134.983673      -46.267910
 N         -47.761646     -134.750397      -47.424171
 H         -51.127213     -134.475159      -45.328644
 H         -48.116882     -135.267349      -45.263615
 C         -51.046680     -135.477615      -44.810219
 C         -51.627869     -136.757477      -45.380154
 C         -51.188042     -135.371384      -43.281528
 C         -51.197048     -138.005814      -44.501968
 C         -50.867153     -136.599396      -42.547226
 C         -51.644047     -137.809845      -43.137562
 H         -51.230202     -136.803574      -46.365467
 H         -52.780666     -136.610138      -45.455124
 H         -50.501240     -134.643921      -42.810490
 H         -52.279541     -135.020081      -43.099728
 H         -50.104252     -138.167435      -44.631844
 H         -51.744251     -138.785049      -44.980686
 H         -50.954792     -136.475388      -41.519424
 H         -49.805653     -136.818207      -42.607101
 H         -51.470417     -138.805359      -42.463741
 H         -52.757507     -137.766144      -42.976440
