20
 generated by VMD
 C         -77.460991     -203.192062      -68.149223
 N         -77.794426     -204.191681      -67.632431
 H         -74.987839     -201.210159      -67.395653
 H         -77.054153     -202.172668      -68.428970
 C         -74.492195     -200.700439      -68.257431
 C         -75.067299     -199.410233      -68.626396
 C         -73.856644     -201.611954      -69.269363
 C         -74.141861     -198.655182      -69.627182
 C         -73.020973     -200.891495      -70.313591
 C         -73.656204     -199.594589      -70.757744
 H         -75.098152     -198.734970      -67.717293
 H         -76.091400     -199.356918      -69.030472
 H         -73.048119     -202.216461      -68.821396
 H         -74.581802     -202.248322      -69.794563
 H         -73.354294     -198.296814      -69.033157
 H         -74.721077     -197.860840      -70.074135
 H         -72.808067     -201.519836      -71.176636
 H         -71.983116     -200.570267      -69.985947
 H         -72.775940     -199.059235      -71.281075
 H         -74.390495     -199.819122      -71.518150
