20
 generated by VMD
 C         -62.868084     -172.136765      -55.263226
 N         -62.453480     -173.237183      -55.174206
 H         -61.587650     -171.262924      -58.901722
 H         -63.132160     -171.126892      -55.477024
 C         -62.453995     -170.659042      -58.774097
 C         -62.405998     -169.473145      -57.927589
 C         -63.714020     -171.359375      -58.875126
 C         -63.638100     -168.568985      -57.984833
 C         -64.918900     -170.405823      -59.104618
 C         -64.887192     -169.463760      -57.889145
 H         -61.457550     -168.869614      -58.295975
 H         -62.188362     -169.834702      -56.978928
 H         -63.866337     -171.968597      -59.713470
 H         -63.877174     -171.885101      -57.889023
 H         -63.700588     -167.975983      -58.984432
 H         -63.537663     -167.855804      -57.109421
 H         -65.885101     -170.972931      -59.107632
 H         -64.720207     -169.870316      -60.039875
 H         -65.725319     -168.789185      -57.984528
 H         -64.996162     -169.886047      -56.895557
