20
 generated by VMD
 C         -53.030048     -146.754608      -44.672638
 N         -51.841949     -146.882523      -44.783333
 H         -54.101276     -146.456314      -47.358196
 H         -54.085907     -146.667145      -44.686279
 C         -54.150879     -145.583679      -48.069481
 C         -53.053951     -145.336456      -49.005951
 C         -54.858242     -144.243622      -47.710926
 C         -53.406807     -144.551285      -50.203854
 C         -55.349781     -143.461441      -48.970833
 C         -54.141117     -143.283646      -49.911186
 H         -52.518902     -146.259125      -49.328056
 H         -52.335636     -144.803391      -48.389950
 H         -55.706257     -144.515945      -47.117241
 H         -54.075523     -143.532074      -47.350922
 H         -54.087734     -145.065826      -50.833561
 H         -52.523338     -144.435272      -50.691769
 H         -55.701595     -142.498535      -48.764477
 H         -56.133892     -144.066818      -49.486111
 H         -54.507790     -142.879700      -50.834324
 H         -53.469524     -142.489334      -49.505222
