20
 generated by VMD
 C         -38.296268     -110.426483      -36.123466
 N         -37.761467     -109.386459      -36.306786
 H         -40.044708     -113.594162      -35.852596
 H         -38.653336     -111.438881      -36.252342
 C         -41.068405     -113.139824      -35.927769
 C         -42.245487     -113.821892      -36.661732
 C         -41.483387     -111.991768      -35.062889
 C         -43.404949     -114.180946      -35.745476
 C         -42.726250     -112.475952      -34.125202
 C         -43.818336     -113.001419      -34.968399
 H         -41.826073     -114.706085      -37.131775
 H         -42.577854     -113.070129      -37.435299
 H         -40.684887     -111.688019      -34.322685
 H         -41.818893     -111.111473      -35.645008
 H         -43.273819     -115.192329      -35.274479
 H         -44.299511     -114.495621      -36.325630
 H         -42.988159     -111.619507      -33.543156
 H         -42.424850     -113.252304      -33.451344
 H         -44.639050     -113.151443      -34.309853
 H         -44.142662     -112.116577      -35.638069
