20
 generated by VMD
 C         -21.055342      -56.422070      -17.052277
 N         -21.069773      -55.501411      -17.711401
 H         -23.170910      -58.856770      -15.945577
 H         -21.018488      -57.530071      -16.690157
 C         -22.176584      -59.149517      -15.632880
 C         -21.955809      -58.989346      -14.116530
 C         -21.726645      -60.374939      -16.390295
 C         -21.014000      -59.925945      -13.342587
 C         -20.440956      -60.916260      -15.744406
 C         -20.755625      -61.258907      -14.256604
 H         -22.878801      -59.026569      -13.565171
 H         -21.519636      -57.942402      -14.094239
 H         -22.532738      -61.148205      -16.308447
 H         -21.486956      -60.123043      -17.463434
 H         -21.360790      -60.134735      -12.354154
 H         -20.089943      -59.376740      -13.197126
 H         -19.564484      -60.179485      -15.754206
 H         -20.189081      -61.882500      -16.221582
 H         -21.581076      -61.978989      -14.177944
 H         -19.899609      -61.893639      -13.850500
