20
 generated by VMD
 C         -79.248337     -207.091202      -75.301994
 N         -78.815544     -207.119904      -76.408096
 H         -78.399750     -210.337158      -73.342918
 H         -79.536736     -206.866028      -74.313232
 C         -78.234634     -210.126114      -72.303139
 C         -77.084496     -209.216904      -72.177307
 C         -78.415352     -211.136154      -71.203804
 C         -76.901718     -208.565292      -70.892426
 C         -78.381187     -210.431152      -69.801994
 C         -77.041489     -209.693756      -69.732300
 H         -77.520035     -208.371460      -72.741203
 H         -76.195618     -209.536179      -72.747398
 H         -79.407127     -211.662949      -71.297134
 H         -77.588127     -211.888809      -71.221634
 H         -77.724075     -207.774292      -70.787285
 H         -75.973175     -208.009171      -70.659019
 H         -78.503098     -211.262543      -69.059776
 H         -79.247200     -209.765091      -69.782227
 H         -76.945381     -209.172684      -68.775040
 H         -76.255783     -210.454346      -69.653938
