20
 generated by VMD
 C         -38.737789     -112.446655      -35.751263
 N         -38.339130     -111.893684      -36.714287
 H         -41.256298     -115.233727      -35.190735
 H         -39.150928     -113.076752      -34.913631
 C         -41.680553     -114.298325      -35.527328
 C         -41.806274     -114.309494      -37.019512
 C         -42.437546     -113.334991      -34.669895
 C         -43.234436     -114.637764      -37.251610
 C         -43.937115     -113.508194      -35.035606
 C         -44.264515     -113.701851      -36.529102
 H         -40.942490     -114.905128      -37.492054
 H         -41.528915     -113.288002      -37.338436
 H         -42.457394     -113.398819      -33.614620
 H         -42.044140     -112.353760      -34.851654
 H         -43.400784     -115.693588      -36.898773
 H         -43.521584     -114.700462      -38.299202
 H         -44.657154     -112.654594      -34.684658
 H         -44.280079     -114.543007      -34.651005
 H         -45.299522     -114.003922      -36.583546
 H         -44.178741     -112.635277      -36.966660
