20
 generated by VMD
 C         -31.930138      -76.189560      -24.390606
 N         -31.457354      -76.617737      -25.393728
 H         -29.636721      -77.683266      -22.642776
 H         -32.106270      -75.783455      -23.413239
 C         -28.606508      -77.898933      -22.255238
 C         -27.606714      -78.104942      -23.310415
 C         -28.378756      -78.381035      -20.856348
 C         -26.165247      -78.037910      -22.750559
 C         -26.911877      -78.444054      -20.390984
 C         -25.990139      -78.762260      -21.466936
 H         -27.660221      -77.170982      -23.970572
 H         -27.814407      -79.107651      -23.709433
 H         -28.901619      -77.856071      -20.093317
 H         -28.681011      -79.494148      -20.744404
 H         -25.852676      -76.957481      -22.613218
 H         -25.476135      -78.432281      -23.496008
 H         -26.807238      -79.098251      -19.535412
 H         -26.643066      -77.377304      -19.969051
 H         -24.954676      -78.675552      -21.053774
 H         -25.966509      -79.856354      -21.636303
