20
 generated by VMD
 C         -51.122494     -127.904045      -41.570461
 N         -51.949318     -128.645599      -41.866077
 H         -47.331181     -128.068130      -40.957283
 H         -50.412788     -127.129730      -41.312283
 C         -46.595997     -127.375587      -40.878468
 C         -45.430340     -127.804329      -40.052059
 C         -46.754112     -125.991325      -41.086803
 C         -44.166931     -127.295166      -40.745369
 C         -45.608402     -125.481110      -41.888145
 C         -44.259483     -125.747162      -41.174885
 H         -45.282429     -128.883011      -39.994755
 H         -45.476044     -127.421387      -39.057163
 H         -47.645912     -125.846657      -41.665356
 H         -46.959995     -125.163765      -40.302620
 H         -44.018204     -127.941719      -41.710125
 H         -43.178596     -127.575180      -40.298447
 H         -45.496498     -124.399712      -42.031811
 H         -45.541832     -125.964790      -42.882721
 H         -43.358528     -125.419930      -41.771408
 H         -44.347912     -125.177979      -40.254646
