20
 generated by VMD
 C         -21.767166      -52.401966      -11.372771
 N         -21.599365      -52.934196      -10.315663
 H         -19.960854      -51.269264      -13.982361
 H         -21.689610      -51.897682      -12.174263
 C         -18.915613      -51.247787      -13.742022
 C         -18.080313      -51.966541      -14.745337
 C         -18.417902      -51.081566      -12.356245
 C         -16.572416      -51.908478      -14.456671
 C         -16.927027      -51.103642      -12.081326
 C         -16.182638      -52.095730      -12.971819
 H         -18.331158      -51.576946      -15.766248
 H         -18.397768      -52.997746      -14.808213
 H         -18.860004      -50.205086      -11.900621
 H         -18.889862      -51.946934      -11.822341
 H         -16.123243      -50.920376      -14.744009
 H         -16.079679      -52.664734      -15.093405
 H         -16.698666      -51.293018      -10.956507
 H         -16.518492      -50.134312      -12.301768
 H         -15.074785      -51.900696      -12.863214
 H         -16.441383      -53.112843      -12.579420
