20
 generated by VMD
 C         -68.015388     -192.828415      -66.361534
 N         -68.695900     -193.002975      -67.265945
 H         -69.855148     -189.870087      -65.336060
 H         -67.276497     -192.804321      -65.613434
 C         -70.923363     -190.220444      -65.236725
 C         -71.582756     -190.878128      -66.387123
 C         -71.579063     -190.237976      -63.862869
 C         -72.480095     -192.063461      -65.864029
 C         -73.139801     -190.392944      -64.004250
 C         -73.606773     -191.539459      -64.933022
 H         -70.814392     -191.372040      -67.055588
 H         -72.084290     -190.144455      -67.018318
 H         -71.115150     -191.063141      -63.360168
 H         -71.337723     -189.420761      -63.179100
 H         -71.973862     -192.770370      -65.228821
 H         -72.929688     -192.520615      -66.701637
 H         -73.598877     -189.435013      -64.349869
 H         -73.416451     -190.548248      -62.943485
 H         -73.956963     -192.352142      -64.343811
 H         -74.627861     -191.111557      -65.354980
