20
 generated by VMD
 C         -52.936619     -147.304657      -45.451340
 N         -54.105888     -147.406021      -45.250881
 H         -54.813549     -147.645203      -48.448807
 H         -51.932800     -147.333878      -45.792870
 C         -54.603046     -146.578323      -48.692711
 C         -53.281483     -146.389236      -49.409149
 C         -55.026802     -145.349640      -47.911541
 C         -53.381458     -145.238678      -50.386250
 C         -55.164711     -144.232574      -48.979710
 C         -53.903595     -144.032654      -49.729187
 H         -52.914818     -147.248352      -49.982014
 H         -52.482929     -146.185379      -48.714584
 H         -56.120548     -145.598099      -47.601612
 H         -54.453583     -145.063110      -47.000435
 H         -53.826107     -145.477524      -51.474751
 H         -52.335789     -144.912155      -50.680706
 H         -55.340858     -143.240784      -48.443604
 H         -56.005531     -144.398834      -49.535492
 H         -53.937351     -143.215591      -50.416309
 H         -53.222301     -143.611328      -48.972397
