20
 generated by VMD
 C         -68.508331     -192.871902      -66.187881
 N         -68.360626     -193.281509      -67.285721
 H         -69.955536     -189.717606      -65.349632
 H         -68.948738     -192.447968      -65.217720
 C         -70.893585     -190.304565      -65.298218
 C         -71.641953     -190.902908      -66.464554
 C         -71.560272     -190.564117      -63.893696
 C         -72.599655     -191.984390      -66.079369
 C         -73.094658     -190.598328      -63.992046
 C         -73.655647     -191.589813      -65.002747
 H         -70.929550     -191.318665      -67.164764
 H         -72.100441     -190.055862      -67.070297
 H         -71.125992     -191.471985      -63.576141
 H         -71.283607     -189.766846      -63.106827
 H         -71.982788     -192.813065      -65.729179
 H         -73.014229     -192.339325      -67.028183
 H         -73.434883     -189.587219      -64.408020
 H         -73.521408     -190.618057      -62.994568
 H         -73.913185     -192.564713      -64.512848
 H         -74.564690     -191.199188      -65.442268
