20
 generated by VMD
 C         -79.143303     -205.764801      -73.945717
 N         -79.195358     -206.857758      -73.605988
 H         -78.679817     -206.045441      -70.496078
 H         -79.363335     -204.821136      -74.283653
 C         -77.604156     -206.352707      -70.473747
 C         -76.763885     -205.523117      -71.361015
 C         -77.186096     -207.660370      -69.882973
 C         -75.360046     -205.409424      -70.813675
 C         -75.878868     -207.455368      -69.211166
 C         -74.861969     -206.767014      -70.157646
 H         -77.330826     -204.614090      -71.248932
 H         -76.645760     -205.753143      -72.413567
 H         -77.932114     -207.741684      -69.042419
 H         -77.395210     -208.504242      -70.565247
 H         -75.339188     -204.706451      -70.001541
 H         -74.640831     -204.943298      -71.503464
 H         -75.411507     -208.379669      -68.805550
 H         -76.043373     -206.754257      -68.449661
 H         -73.866539     -206.687531      -69.791824
 H         -74.679710     -207.443405      -71.072853
