20
 generated by VMD
 C         -41.263184     -102.822266      -35.751476
 N         -41.324818     -103.964638      -35.535095
 H         -39.225952     -104.570465      -33.812500
 H         -41.579594     -101.841225      -35.959923
 C         -38.637520     -105.114662      -33.049442
 C         -37.255486     -104.760628      -32.863457
 C         -39.115917     -106.411644      -32.598656
 C         -36.572842     -105.179062      -31.530563
 C         -38.588486     -106.761047      -31.169125
 C         -37.021793     -106.564690      -31.080374
 H         -37.073341     -103.678291      -32.910942
 H         -36.678276     -105.267807      -33.724518
 H         -40.162659     -106.424187      -32.662952
 H         -38.797455     -107.249283      -33.216236
 H         -36.807343     -104.528671      -30.668264
 H         -35.555267     -104.831680      -31.581409
 H         -38.777180     -107.785011      -30.923626
 H         -39.204636     -106.178543      -30.391584
 H         -36.761013     -106.706551      -30.008715
 H         -36.422909     -107.295685      -31.642769
