20
 generated by VMD
 C          -2.357706      -16.911999        2.824458
 N          -2.424035      -16.402254        1.837705
 H          -4.409103      -15.827362        0.092106
 H          -4.464199      -17.229004       -1.007739
 C          -5.041565      -16.631332       -0.282531
 C          -6.288693      -15.963037       -0.932959
 C          -5.405325      -17.666403        0.851408
 C          -7.296759      -17.074139       -1.373298
 C          -6.418549      -18.614887        0.350340
 C          -7.663793      -18.009251       -0.238207
 H          -5.959699      -15.363311       -1.815866
 H          -6.800579      -15.299421       -0.255501
 H          -4.445158      -18.175369        1.022377
 H          -5.719136      -17.034319        1.745065
 H          -6.819075      -17.681841       -2.205345
 H          -8.158394      -16.650532       -1.887329
 H          -6.713190      -19.356068        1.157026
 H          -5.999186      -19.231855       -0.443507
 H          -8.367191      -18.780691       -0.551913
 H          -8.222093      -17.505737        0.567250
