20
 generated by VMD
 C         -40.925201     -103.410881      -35.626282
 N         -41.295750     -104.494751      -35.484619
 H         -38.816387     -104.545609      -33.991230
 H         -40.267582     -102.507645      -35.684498
 C         -38.555367     -105.029518      -33.121716
 C         -37.128056     -104.834076      -32.765099
 C         -39.370567     -106.251259      -32.799973
 C         -36.888172     -105.436943      -31.506643
 C         -38.933296     -107.018806      -31.526081
 C         -37.394672     -106.896011      -31.402954
 H         -36.804153     -103.847122      -32.801407
 H         -36.628693     -105.397888      -33.536865
 H         -40.424427     -105.812660      -32.663368
 H         -39.416607     -106.869133      -33.687649
 H         -37.336922     -104.962982      -30.597607
 H         -35.804237     -105.278847      -31.264376
 H         -39.225887     -108.031418      -31.579313
 H         -39.294323     -106.695595      -30.542963
 H         -37.096802     -107.465446      -30.553339
 H         -36.929893     -107.427567      -32.300739
