20
 generated by VMD
 C         -40.833462     -103.535728      -35.630806
 N         -41.386929     -104.548698      -35.544983
 H         -39.049545     -104.496063      -34.010277
 H         -40.652359     -102.446144      -35.778450
 C         -38.606121     -104.976929      -33.228558
 C         -37.044277     -104.836510      -32.749912
 C         -39.362617     -106.191559      -32.755299
 C         -36.925991     -105.588898      -31.424141
 C         -38.931328     -106.994530      -31.596260
 C         -37.444756     -107.040169      -31.434574
 H         -36.964329     -103.765816      -32.611343
 H         -36.346485     -105.128342      -33.526134
 H         -40.483738     -105.873497      -32.734566
 H         -39.276722     -106.806190      -33.615166
 H         -37.394920     -105.153282      -30.537434
 H         -35.853348     -105.594978      -31.183748
 H         -39.334366     -108.081909      -31.677595
 H         -39.402973     -106.531654      -30.694427
 H         -37.261230     -107.589760      -30.532778
 H         -36.990208     -107.634689      -32.291283
