20
 generated by VMD
 C         -38.516212      -98.764969      -27.695730
 N         -38.043335      -99.484741      -26.913679
 H         -37.356815      -97.735451      -30.407803
 H         -38.742851      -97.985863      -28.394945
 C         -36.281837      -97.415077      -30.613310
 C         -35.516365      -97.974846      -31.794712
 C         -35.617191      -96.631561      -29.529854
 C         -34.531742      -96.880241      -32.253799
 C         -34.257568      -96.021263      -29.807787
 C         -33.575367      -96.566216      -31.146374
 H         -36.123123      -98.329414      -32.664330
 H         -34.894070      -98.764923      -31.488108
 H         -36.389767      -95.844582      -29.329304
 H         -35.589508      -97.124306      -28.559113
 H         -35.019508      -95.994453      -32.752163
 H         -34.018398      -97.284531      -33.078590
 H         -33.583210      -96.066154      -28.993929
 H         -34.412708      -94.912842      -29.866138
 H         -32.845650      -95.804253      -31.578945
 H         -32.991455      -97.404808      -30.731707
