20
 generated by VMD
 C         -50.005554     -143.045807      -44.919044
 N         -49.051109     -143.320618      -45.463421
 H         -51.876308     -140.664703      -45.576576
 H         -50.911514     -142.670807      -44.494003
 C         -52.593742     -141.147461      -46.289436
 C         -52.109371     -141.125656      -47.622917
 C         -54.088459     -140.827316      -46.040699
 C         -52.928925     -142.138199      -48.446026
 C         -55.042351     -141.698914      -46.869061
 C         -54.435135     -141.837280      -48.378834
 H         -51.052284     -141.368881      -47.592598
 H         -52.104553     -140.121964      -47.893547
 H         -54.313881     -140.770004      -44.971535
 H         -54.350815     -139.815002      -46.352093
 H         -52.685699     -143.086166      -48.066250
 H         -52.672741     -142.161713      -49.478508
 H         -56.054268     -141.319992      -46.723423
 H         -54.999210     -142.776566      -46.609734
 H         -54.937996     -142.628738      -48.843403
 H         -54.486576     -140.896133      -48.856930
