20
 generated by VMD
 C         -38.266983     -113.862335      -35.503628
 N         -38.295601     -115.002441      -35.416595
 H         -41.426594     -114.564651      -35.984825
 H         -38.448238     -112.790375      -35.375317
 C         -42.359329     -114.792900      -36.530247
 C         -42.649101     -114.835342      -37.945183
 C         -43.479786     -114.555931      -35.629154
 C         -43.889370     -115.612602      -38.352627
 C         -44.649502     -115.564217      -35.928791
 C         -45.106079     -115.371880      -37.366024
 H         -41.811600     -115.017761      -38.537567
 H         -42.825256     -113.815758      -38.285259
 H         -43.039371     -114.583031      -34.629387
 H         -43.883381     -113.589584      -35.939075
 H         -43.785137     -116.706177      -38.325527
 H         -44.252899     -115.334984      -39.349358
 H         -45.456280     -115.391251      -35.246838
 H         -44.233280     -116.523613      -35.826729
 H         -45.941158     -115.893318      -37.647972
 H         -45.522289     -114.404610      -37.684956
