20
 generated by VMD
 C         -10.604185      -33.364586       -9.491118
 N         -10.896148      -32.567211       -8.810084
 H         -12.050513      -36.032238       -7.966365
 H         -12.434545      -35.664196       -6.253730
 C         -12.518511      -36.468807       -7.058030
 C         -11.784616      -37.635876       -6.436985
 C         -13.975297      -36.707649       -7.289617
 C         -12.577918      -38.169067       -5.205019
 C         -14.697832      -37.167679       -6.034429
 C         -14.052355      -38.423019       -5.442161
 H         -10.768218      -37.413948       -6.109820
 H         -11.727386      -38.447212       -7.130662
 H         -14.446285      -35.820229       -7.680636
 H         -13.996673      -37.572506       -8.005813
 H         -12.386841      -37.414562       -4.485758
 H         -12.073370      -39.043713       -4.818833
 H         -15.711952      -37.320343       -6.271420
 H         -14.621231      -36.366199       -5.213849
 H         -14.602057      -38.486286       -4.465720
 H         -14.208111      -39.334412       -6.031759
