20
 generated by VMD
 C         -40.333893     -118.595238      -35.077534
 N         -39.445404     -117.853180      -35.022820
 H         -43.199291     -116.708633      -36.262283
 H         -41.134022     -119.314819      -35.108749
 C         -43.661930     -116.861145      -37.188801
 C         -42.855530     -117.187302      -38.411640
 C         -44.946472     -116.176613      -37.248875
 C         -43.771832     -117.953468      -39.357288
 C         -45.886181     -117.006104      -38.063499
 C         -45.198608     -117.234848      -39.456825
 H         -41.935684     -117.610855      -38.023418
 H         -42.541039     -116.200882      -38.803497
 H         -45.489040     -115.936150      -36.287418
 H         -44.707684     -115.223099      -37.737930
 H         -43.778042     -119.026741      -39.160187
 H         -43.234982     -117.900520      -40.345020
 H         -46.896137     -116.585411      -38.370308
 H         -46.023846     -117.952293      -37.461548
 H         -45.676712     -117.973778      -40.108074
 H         -45.074757     -116.305679      -40.164921
