20
 generated by VMD
 C         -79.526550     -206.803009      -74.360001
 N         -80.397079     -207.531006      -74.615715
 H         -76.752319     -207.578049      -73.225128
 H         -78.820999     -206.092056      -73.920303
 C         -76.615044     -207.869415      -72.247162
 C         -75.517075     -207.265442      -71.405411
 C         -77.748680     -208.602875      -71.578819
 C         -75.739189     -207.147217      -69.903442
 C         -77.893265     -208.445358      -70.030846
 C         -76.466827     -208.490372      -69.449417
 H         -75.059540     -206.278244      -71.591965
 H         -74.766678     -208.061493      -71.518875
 H         -78.737808     -208.376877      -71.930878
 H         -77.644180     -209.680801      -71.819061
 H         -76.364746     -206.333008      -69.562538
 H         -74.760262     -207.032059      -69.400620
 H         -78.560013     -209.279922      -69.677521
 H         -78.346191     -207.509338      -69.710480
 H         -76.550552     -208.580093      -68.278603
 H         -75.937943     -209.460007      -69.616272
