20
 generated by VMD
 C         -39.651703     -105.518463      -37.251530
 N         -40.274864     -104.569519      -36.975212
 H         -39.400993     -108.307953      -35.418911
 H         -38.997696     -106.263161      -37.746086
 C         -39.440208     -108.752357      -34.386295
 C         -38.404785     -108.209190      -33.414001
 C         -40.696709     -109.603889      -33.944901
 C         -38.903641     -108.178284      -31.946018
 C         -40.966026     -109.503502      -32.516224
 C         -39.715439     -109.401680      -31.605282
 H         -37.996574     -107.103737      -33.605259
 H         -37.505375     -108.896851      -33.434109
 H         -41.478176     -109.319366      -34.692131
 H         -40.467358     -110.623306      -34.134727
 H         -39.449127     -107.285919      -31.640404
 H         -37.975143     -108.285034      -31.309557
 H         -41.528584     -110.330627      -32.041801
 H         -41.680351     -108.658798      -32.277588
 H         -39.870819     -109.473503      -30.428057
 H         -38.974552     -110.215721      -31.780661
