20
 generated by VMD
 C         -72.507935     -199.284912      -65.245995
 N         -71.450951     -199.437408      -64.814682
 H         -71.430489     -196.161377      -66.968513
 H         -73.529099     -199.396362      -65.491371
 C         -72.289452     -195.797272      -67.507957
 C         -72.866814     -194.447205      -67.114319
 C         -72.795387     -196.458084      -68.734032
 C         -74.011101     -194.023972      -67.954285
 C         -74.227013     -196.317200      -69.001274
 C         -74.913925     -195.171310      -68.216019
 H         -72.033989     -193.712418      -67.023888
 H         -73.271065     -194.529129      -66.191498
 H         -72.043045     -196.133804      -69.543175
 H         -72.614021     -197.607407      -68.728180
 H         -73.678848     -193.801834      -68.940598
 H         -74.574173     -193.219742      -67.422638
 H         -74.701996     -197.306458      -68.778496
 H         -74.373772     -196.181015      -70.050621
 H         -75.910797     -195.062790      -68.760857
 H         -75.045616     -195.601944      -67.295753
