20
 generated by VMD
 C         -28.320709      -85.376823      -26.742964
 N         -27.345316      -85.858582      -26.440277
 H         -31.030884      -85.225014      -25.629248
 H         -29.217205      -84.737770      -27.019472
 C         -31.818287      -85.973305      -25.740307
 C         -32.507458      -86.318718      -24.393459
 C         -32.075516      -86.833061      -26.981649
 C         -33.820076      -87.210083      -24.529736
 C         -33.449734      -87.459892      -26.940632
 C         -33.852673      -88.197945      -25.650351
 H         -32.698418      -85.458649      -23.701906
 H         -31.899006      -86.872787      -23.716999
 H         -31.917934      -86.155258      -27.816454
 H         -31.334841      -87.613373      -26.887333
 H         -34.760811      -86.474556      -24.483210
 H         -34.031010      -87.634743      -23.509022
 H         -33.430279      -88.163559      -27.748777
 H         -34.358364      -86.794441      -27.182917
 H         -34.892208      -88.599792      -25.962915
 H         -33.143879      -89.013268      -25.390738
