20
 generated by VMD
 C         -49.498531     -127.615654      -39.650215
 N         -50.483940     -127.507774      -40.278957
 H         -47.215225     -127.309227      -42.413189
 H         -48.769238     -127.732452      -38.834068
 C         -46.563782     -126.621948      -41.847725
 C         -45.752029     -127.175102      -40.757595
 C         -46.600853     -125.200119      -41.976074
 C         -44.377636     -126.390244      -40.382126
 C         -45.346653     -124.332161      -41.655804
 C         -44.676037     -124.891434      -40.324738
 H         -45.331642     -128.209885      -40.989883
 H         -46.314579     -127.223572      -39.850128
 H         -46.840023     -125.089142      -43.008579
 H         -47.377102     -124.954826      -41.130661
 H         -43.592056     -126.625679      -41.100094
 H         -44.166294     -126.804855      -39.404671
 H         -45.729618     -123.334930      -41.446209
 H         -44.802189     -124.194168      -42.545254
 H         -43.805523     -124.250328      -40.149124
 H         -45.377251     -124.563255      -39.542374
