20
 generated by VMD
 C         -49.953571     -143.371658      -44.527107
 N         -49.207127     -143.476898      -45.467854
 H         -51.910320     -141.095764      -45.551712
 H         -50.774212     -143.320770      -43.807056
 C         -52.657372     -141.265350      -46.295914
 C         -52.106255     -141.565567      -47.676918
 C         -54.150784     -141.110626      -46.139385
 C         -53.172932     -142.182892      -48.736462
 C         -55.005199     -141.888092      -47.120998
 C         -54.552803     -141.698364      -48.623241
 H         -51.194500     -142.174805      -47.637638
 H         -51.718075     -140.711319      -48.091690
 H         -54.487701     -141.335785      -45.136021
 H         -54.420315     -140.098663      -46.105026
 H         -53.259781     -143.304825      -48.485420
 H         -52.640003     -142.117172      -49.690628
 H         -56.037758     -141.602814      -47.348122
 H         -55.010250     -142.907196      -46.718315
 H         -55.279251     -142.310089      -49.213154
 H         -54.575851     -140.571167      -48.745258
