20
 generated by VMD
 C         -69.129898     -184.972275      -66.585632
 N         -69.391068     -185.260086      -67.690056
 H         -69.697174     -183.113037      -63.244923
 H         -69.013092     -184.736496      -65.474319
 C         -69.253807     -183.315689      -62.227013
 C         -69.848015     -184.537842      -61.507549
 C         -68.098518     -182.570190      -61.708344
 C         -68.662010     -185.450897      -61.243092
 C         -66.968033     -183.531906      -61.226986
 C         -67.506340     -184.740906      -60.453190
 H         -70.619781     -185.070099      -62.106136
 H         -70.424820     -184.226974      -60.627190
 H         -67.770927     -181.993164      -62.568214
 H         -68.397789     -181.794815      -60.869606
 H         -68.335541     -185.734772      -62.222256
 H         -68.940704     -186.351227      -60.744514
 H         -66.215729     -183.065918      -60.525402
 H         -66.505394     -183.766953      -62.200127
 H         -66.728523     -185.600571      -60.187935
 H         -68.029106     -184.484680      -59.495892
