20
 generated by VMD
 C          -6.848158      -22.801401        2.159756
 N          -6.081936      -22.809343        2.974118
 H          -6.024755      -20.394726       -0.163453
 H          -7.345721      -21.231569       -0.468542
 C          -6.603339      -20.683535       -1.005695
 C          -6.039767      -21.712585       -1.940063
 C          -7.216177      -19.468494       -1.707999
 C          -7.027265      -22.073786       -3.058800
 C          -8.229688      -19.861824       -2.818311
 C          -7.620775      -20.832134       -3.838622
 H          -5.698090      -22.641014       -1.366053
 H          -5.225958      -21.223541       -2.489218
 H          -7.624204      -18.838959       -0.922817
 H          -6.334602      -18.910143       -2.139687
 H          -7.877451      -22.559546       -2.560465
 H          -6.602285      -22.831095       -3.708372
 H          -8.612255      -18.963108       -3.293207
 H          -9.125707      -20.250057       -2.337749
 H          -8.322529      -21.163094       -4.592852
 H          -6.762110      -20.358519       -4.296603
