20
 generated by VMD
 C         -28.491848      -82.478127      -26.410053
 N         -27.697540      -82.782135      -27.188435
 H         -31.232300      -83.989243      -26.549210
 H         -29.091619      -82.204857      -25.590580
 C         -31.385805      -84.751335      -25.761038
 C         -30.844584      -84.456284      -24.404200
 C         -31.988806      -85.998917      -26.121494
 C         -31.851866      -84.932068      -23.306948
 C         -33.020370      -86.415558      -25.076012
 C         -32.384724      -86.366615      -23.582363
 H         -30.516102      -83.420403      -24.242697
 H         -29.947350      -84.980484      -24.416206
 H         -32.331268      -85.778572      -27.123081
 H         -31.263691      -86.833450      -26.065756
 H         -32.636921      -84.157104      -23.054634
 H         -31.322128      -84.929230      -22.370949
 H         -33.266708      -87.415062      -25.363356
 H         -33.991741      -85.777191      -25.214611
 H         -33.230667      -86.795914      -22.963112
 H         -31.630892      -87.156738      -23.658585
