20
 generated by VMD
 C         -36.542126      -97.826935      -26.677723
 N         -35.973724      -98.218208      -25.748314
 H         -36.195297      -95.093689      -28.422775
 H         -37.266090      -97.416809      -27.498600
 C         -35.405792      -95.338654      -29.100079
 C         -35.705067      -96.193687      -30.282238
 C         -34.206463      -94.510460      -29.101181
 C         -35.361645      -95.434891      -31.563313
 C         -33.903301      -93.778099      -30.426146
 C         -33.957108      -94.827988      -31.601997
 H         -36.765476      -96.584068      -30.331532
 H         -35.033493      -96.998772      -30.040089
 H         -34.387924      -93.733002      -28.330444
 H         -33.221863      -94.921532      -28.834827
 H         -36.111435      -94.615005      -31.806223
 H         -35.324440      -96.118629      -32.409286
 H         -32.900272      -93.456329      -30.337591
 H         -34.404690      -92.804703      -30.444407
 H         -33.742836      -94.198380      -32.486080
 H         -33.193638      -95.537064      -31.397440
