20
 generated by VMD
 C         -22.028242      -55.303848      -17.513618
 N         -21.536852      -55.796791      -18.477896
 H         -21.350380      -56.772095      -13.883165
 H         -22.088114      -55.196667      -16.432613
 C         -21.108898      -57.776756      -14.149902
 C         -21.246799      -58.762856      -12.926604
 C         -20.816177      -58.226994      -15.480771
 C         -20.890623      -60.189865      -13.278552
 C         -20.241165      -59.643784      -15.600813
 C         -19.825085      -60.163235      -14.276442
 H         -22.262188      -58.637196      -12.459007
 H         -20.505636      -58.377949      -12.166800
 H         -21.700674      -58.253071      -16.019516
 H         -20.113983      -57.478745      -15.865143
 H         -21.755030      -60.677578      -13.686481
 H         -20.502829      -60.712864      -12.429328
 H         -19.493076      -59.659397      -16.397501
 H         -21.128494      -60.264397      -15.879509
 H         -19.301701      -61.158657      -14.381027
 H         -19.040995      -59.442566      -13.906087
