20
 generated by VMD
 C         -68.260872     -193.644684      -65.316093
 N         -68.228668     -194.776657      -65.261246
 H         -70.914017     -192.367081      -67.801659
 H         -68.045860     -192.643631      -65.414879
 C         -71.675926     -192.207321      -67.028748
 C         -71.962593     -190.926590      -66.264923
 C         -72.435898     -193.442978      -66.620171
 C         -73.486000     -190.660812      -66.146240
 C         -73.334663     -193.111023      -65.324539
 C         -74.143524     -191.818375      -65.385345
 H         -71.492310     -190.125275      -66.848244
 H         -71.432610     -190.967667      -65.229759
 H         -72.975029     -193.872711      -67.464287
 H         -71.862686     -194.373962      -66.361420
 H         -73.826759     -190.732773      -67.184814
 H         -73.732346     -189.632874      -65.952003
 H         -72.728210     -193.183716      -64.399727
 H         -73.995895     -193.938385      -65.167725
 H         -75.101021     -192.031113      -65.743980
 H         -74.343224     -191.505417      -64.252899
