20
 generated by VMD
 C         -72.613403     -198.724304      -65.649139
 N         -73.635895     -199.094101      -66.048691
 H         -70.908516     -196.413483      -67.470177
 H         -71.791443     -198.413223      -65.021614
 C         -71.922073     -196.118088      -67.768272
 C         -72.874550     -195.170563      -67.061569
 C         -72.462883     -196.803925      -69.007492
 C         -74.301140     -195.130890      -67.643501
 C         -73.878174     -197.278809      -68.960747
 C         -74.901382     -196.576370      -68.035469
 H         -72.438171     -194.212982      -66.919479
 H         -72.976997     -195.534256      -65.965179
 H         -72.521751     -195.981964      -69.734482
 H         -71.858627     -197.633316      -69.408440
 H         -74.464355     -194.462570      -68.515045
 H         -74.976105     -194.728439      -66.880646
 H         -73.991829     -198.325394      -68.832733
 H         -74.170555     -197.227737      -70.043564
 H         -75.840317     -196.380341      -68.481186
 H         -75.231064     -197.082932      -67.042320
