20
 generated by VMD
 C         -50.651165     -129.972641      -45.079987
 N         -51.477921     -129.203186      -44.765972
 H         -48.995907     -129.551773      -42.802498
 H         -50.005722     -130.846329      -45.149872
 C         -48.272316     -129.642349      -42.078072
 C         -47.913166     -131.023849      -41.612457
 C         -47.479145     -128.402374      -41.579231
 C         -46.482143     -131.228073      -41.129372
 C         -46.040894     -128.807755      -41.248001
 C         -45.917542     -130.056366      -40.380989
 H         -48.151539     -131.677231      -42.396881
 H         -48.626606     -131.265793      -40.810204
 H         -47.371250     -127.503471      -42.315563
 H         -47.953686     -127.990028      -40.727249
 H         -45.967957     -131.365646      -42.111134
 H         -46.332367     -132.102341      -40.397026
 H         -45.540741     -127.989113      -40.642067
 H         -45.479588     -128.800003      -42.182224
 H         -44.895912     -130.329498      -40.072865
 H         -46.446346     -130.086136      -39.416622
