20
 generated by VMD
 C         -21.509199      -52.423996      -11.389039
 N         -21.452837      -52.926029      -10.337383
 H         -19.843861      -50.838318      -13.613748
 H         -21.324053      -51.943577      -12.207076
 C         -18.827831      -50.982727      -13.450463
 C         -18.272783      -51.925896      -14.476678
 C         -18.207109      -50.677212      -12.139164
 C         -16.740742      -52.020283      -14.413182
 C         -16.674303      -50.512009      -12.297283
 C         -16.231649      -51.829739      -12.991965
 H         -18.562164      -51.587330      -15.509472
 H         -18.706944      -52.906235      -14.378028
 H         -18.569159      -49.771336      -11.748906
 H         -18.508148      -51.425556      -11.387217
 H         -16.353420      -51.232170      -15.065837
 H         -16.246590      -52.919483      -14.713419
 H         -16.255617      -50.459892      -11.219462
 H         -16.313782      -49.595982      -12.776125
 H         -15.100384      -51.862560      -13.017765
 H         -16.553465      -52.673138      -12.309480
