20
 generated by VMD
 C         -57.808838     -168.268066      -55.098713
 N         -56.693687     -168.542435      -54.869953
 H         -61.613037     -167.289200      -55.428715
 H         -58.850021     -168.066132      -55.305580
 C         -62.443913     -166.942978      -56.004936
 C         -62.592865     -167.519073      -57.304642
 C         -63.104485     -165.650604      -55.573921
 C         -64.106674     -167.439926      -57.673420
 C         -64.544907     -165.657608      -55.995834
 C         -64.785347     -166.092300      -57.417286
 H         -62.311893     -168.516098      -57.416531
 H         -62.131214     -166.834366      -58.155754
 H         -63.004623     -165.490128      -54.554188
 H         -62.635750     -164.742966      -55.959267
 H         -64.683960     -168.102859      -57.042641
 H         -64.273346     -167.748047      -58.676418
 H         -64.895203     -164.594849      -55.860210
 H         -64.948448     -166.284775      -55.137058
 H         -65.925125     -166.126465      -57.630230
 H         -64.375977     -165.273438      -58.076756
