20
 generated by VMD
 C         -79.100914     -205.741333      -73.565048
 N         -79.198013     -206.893158      -73.745026
 H         -78.743713     -206.370621      -70.801720
 H         -79.312485     -204.721603      -73.466362
 C         -77.721970     -206.238449      -70.495361
 C         -76.734940     -205.470779      -71.316177
 C         -77.169807     -207.432877      -69.877899
 C         -75.318329     -205.326141      -70.712189
 C         -75.726257     -207.302475      -69.248535
 C         -74.764915     -206.724197      -70.256310
 H         -77.143417     -204.422470      -71.304222
 H         -76.899910     -205.884171      -72.281456
 H         -77.849792     -207.533279      -69.006195
 H         -77.291367     -208.309814      -70.508598
 H         -75.460876     -204.559769      -69.898567
 H         -74.718117     -204.790909      -71.477417
 H         -75.465363     -208.250519      -68.804893
 H         -75.773109     -206.468246      -68.416954
 H         -73.734276     -206.595062      -69.801086
 H         -74.663338     -207.440399      -71.092209
