20
 generated by VMD
 C         -29.700779      -88.020027      -25.503084
 N         -29.137085      -89.015923      -25.211250
 H         -31.396711      -90.493698      -27.593128
 H         -30.062330      -87.067642      -25.935205
 C         -32.306835      -89.812401      -27.517363
 C         -32.888855      -89.816536      -26.113234
 C         -33.333813      -89.424263      -28.630077
 C         -33.601971      -88.535950      -25.814138
 C         -34.209122      -88.192299      -28.280550
 C         -34.653667      -88.100853      -26.820129
 H         -32.161297      -89.952805      -25.288260
 H         -33.571323      -90.663231      -26.150816
 H         -32.771248      -89.333611      -29.587955
 H         -34.046658      -90.320381      -28.811056
 H         -32.981293      -87.749390      -25.667370
 H         -34.207294      -88.564735      -24.887144
 H         -35.108707      -88.287682      -28.891144
 H         -33.747494      -87.213982      -28.645138
 H         -34.853054      -87.044777      -26.706348
 H         -35.661133      -88.544975      -26.687422
