20
 generated by VMD
 C         -60.151936     -156.220154      -55.106468
 N         -60.423065     -155.182312      -55.420204
 H         -59.914696     -157.640808      -51.807487
 H         -59.875568     -157.211884      -54.849445
 C         -58.896915     -157.501587      -52.107449
 C         -58.237202     -156.196426      -52.225529
 C         -58.014050     -158.675415      -51.943062
 C         -57.156616     -155.893036      -51.153912
 C         -57.025352     -158.329941      -50.810463
 C         -56.270298     -157.098312      -50.989513
 H         -58.832165     -155.302963      -52.049229
 H         -57.785858     -156.077209      -53.289291
 H         -58.496941     -159.555786      -51.626396
 H         -57.372082     -158.842728      -52.837151
 H         -57.301140     -155.472076      -50.139553
 H         -56.561142     -155.042603      -51.576649
 H         -56.364391     -159.187759      -50.680267
 H         -57.422646     -158.126663      -49.718777
 H         -55.511871     -156.924057      -50.217415
 H         -55.707191     -157.186752      -51.917873
