20
 generated by VMD
 C         -19.957977      -57.390385      -16.799046
 N         -19.201265      -57.718719      -17.608891
 H         -22.444876      -59.779240      -17.265211
 H         -20.861746      -57.036568      -16.285021
 C         -22.589575      -60.443626      -16.497375
 C         -23.862715      -61.218758      -16.469852
 C         -21.259357      -60.813946      -15.821329
 C         -23.826878      -62.394878      -15.551256
 C         -21.308378      -62.238392      -15.396646
 C         -22.626766      -62.603111      -14.631413
 H         -24.162300      -61.531097      -17.522842
 H         -24.579523      -60.536575      -15.997279
 H         -20.426052      -60.627270      -16.529831
 H         -21.038481      -60.122253      -14.972049
 H         -24.049622      -63.314281      -16.159632
 H         -24.751074      -62.423092      -14.904107
 H         -20.294674      -62.443714      -14.944447
 H         -21.523901      -62.840275      -16.298914
 H         -22.453674      -63.684116      -14.364599
 H         -22.675861      -62.039089      -13.714128
