20
 generated by VMD
 C         -12.662015      -27.424019       -4.685547
 N         -13.591772      -28.014006       -4.612841
 H         -10.593526      -29.953640       -2.535495
 H         -10.625258      -28.421124       -3.311994
 C          -9.904551      -29.267611       -3.124799
 C          -9.505068      -29.970890       -4.419617
 C          -8.795643      -28.671783       -2.370861
 C          -8.502077      -29.179117       -5.231819
 C          -7.972285      -27.767746       -3.214266
 C          -7.447590      -28.509619       -4.418829
 H         -10.425950      -30.211779       -4.996010
 H          -9.007106      -30.887251       -4.161801
 H          -9.178253      -28.144917       -1.472175
 H          -8.151087      -29.418900       -1.926907
 H          -9.060381      -28.379742       -5.752474
 H          -7.974548      -29.825869       -5.987868
 H          -7.222446      -27.344704       -2.547972
 H          -8.613049      -26.968367       -3.512029
 H          -6.857389      -27.818924       -5.059031
 H          -6.802105      -29.317644       -4.065950
