20
 generated by VMD
 C         -13.313129      -44.948338       -6.156607
 N         -14.291987      -44.400200       -6.133730
 H         -14.924139      -44.521767       -9.104862
 H         -14.481736      -43.889122      -10.816895
 C         -15.280282      -44.321297      -10.139126
 C         -16.454102      -43.294518      -10.037790
 C         -15.720256      -45.649578      -10.729672
 C         -16.974197      -43.113064      -11.464111
 C         -16.116455      -45.402107      -12.218954
 C         -17.250458      -44.371635      -12.270120
 H         -16.160503      -42.309978       -9.705524
 H         -17.177338      -43.785641       -9.375689
 H         -14.926566      -46.428593      -10.719911
 H         -16.697163      -45.943951      -10.233952
 H         -16.249058      -42.465553      -11.956282
 H         -17.913532      -42.531010      -11.406198
 H         -16.434784      -46.341789      -12.624949
 H         -15.260748      -45.012066      -12.806289
 H         -17.486477      -44.093803      -13.316518
 H         -18.219385      -44.853088      -11.854735
