20
 generated by VMD
 C         -70.221046     -196.653229      -65.293449
 N         -69.485619     -197.221939      -65.976692
 H         -73.856422     -195.873581      -65.171135
 H         -70.929665     -196.266876      -64.571053
 C         -74.031845     -195.222748      -65.997070
 C         -73.023079     -194.035980      -66.011124
 C         -74.434731     -195.813736      -67.364243
 C         -72.386154     -193.770844      -67.334801
 C         -74.466209     -194.848236      -68.504097
 C         -73.418877     -193.736832      -68.508644
 H         -72.330566     -194.037048      -65.105431
 H         -73.531128     -193.086243      -65.648163
 H         -73.726234     -196.675293      -67.537872
 H         -75.450760     -196.155472      -67.189621
 H         -71.519676     -194.479019      -67.575035
 H         -71.877151     -192.773666      -67.258263
 H         -75.459808     -194.426147      -68.619316
 H         -74.372459     -195.495041      -69.427071
 H         -72.906487     -193.635025      -69.435249
 H         -74.023865     -192.855240      -68.328125
