20
 generated by VMD
 C         -10.511187      -35.850471       -9.087296
 N         -10.165836      -34.844521       -8.661969
 H         -13.054241      -36.904144       -6.834951
 H         -14.095541      -37.581154       -5.653617
 C         -13.753630      -37.779751       -6.671030
 C         -13.007474      -39.105682       -6.582352
 C         -14.772308      -37.781265       -7.831006
 C         -13.827794      -40.323753       -6.590963
 C         -15.631962      -39.065697       -7.810536
 C         -14.778437      -40.295227       -7.796555
 H         -12.317668      -39.169376       -5.760516
 H         -12.422170      -39.080856       -7.465982
 H         -15.407274      -36.812431       -7.802282
 H         -14.202248      -37.713539       -8.767238
 H         -14.475092      -40.335403       -5.669797
 H         -13.230453      -41.243389       -6.537502
 H         -16.361111      -39.063889       -8.707059
 H         -16.235790      -39.065205       -6.924046
 H         -15.485192      -41.170937       -7.734777
 H         -14.158975      -40.384300       -8.698824
