20
 generated by VMD
 C         -60.772125     -153.258240      -52.356926
 N         -61.085812     -153.617569      -51.238838
 H         -57.728374     -153.718658      -50.901039
 H         -60.506752     -153.145508      -53.394730
 C         -56.677734     -153.446747      -50.934040
 C         -55.953732     -153.703598      -49.646023
 C         -56.390911     -152.145935      -51.673748
 C         -54.436733     -153.514786      -49.766472
 C         -54.874832     -151.843292      -51.620129
 C         -54.086807     -152.128479      -50.417233
 H         -56.113506     -154.709915      -49.295799
 H         -56.225040     -152.941544      -48.867191
 H         -56.549778     -152.308105      -52.766594
 H         -57.039085     -151.327087      -51.413868
 H         -53.912884     -154.237350      -50.395485
 H         -53.901531     -153.742996      -48.755657
 H         -54.887775     -150.764877      -51.877007
 H         -54.337147     -152.467377      -52.436317
 H         -52.943058     -151.882675      -50.530762
 H         -54.311275     -151.492722      -49.583889
