20
 generated by VMD
 C         -70.594124     -196.927643      -66.224075
 N         -69.903336     -196.079010      -65.780724
 H         -72.078690     -194.792404      -64.757050
 H         -71.046768     -197.779922      -66.647926
 C         -72.677856     -194.537094      -65.655205
 C         -72.461914     -193.107147      -66.022133
 C         -73.808548     -195.211639      -66.382896
 C         -73.382111     -192.641174      -67.174019
 C         -73.689491     -195.109909      -67.894051
 C         -73.410942     -193.685120      -68.351562
 H         -71.503235     -192.964401      -66.376991
 H         -72.593414     -192.442322      -65.119736
 H         -73.787987     -196.240265      -65.997459
 H         -74.720146     -194.921829      -65.836395
 H         -73.042862     -191.693909      -67.603592
 H         -74.389595     -192.503799      -66.738297
 H         -74.590271     -195.455475      -68.449089
 H         -72.911392     -195.802002      -68.258125
 H         -72.336174     -193.627136      -68.849289
 H         -74.010078     -193.322174      -69.089638
