20
 generated by VMD
 C         -22.745029      -52.421734      -11.979630
 N         -23.686462      -52.433846      -11.389619
 H         -19.847857      -53.604317      -14.357477
 H         -21.904884      -52.550201      -12.886921
 C         -18.857149      -53.385975      -14.142076
 C         -18.265738      -52.071175      -14.533735
 C         -18.091873      -54.407131      -13.247254
 C         -16.727659      -52.251816      -14.492676
 C         -17.079136      -53.710445      -12.393622
 C         -16.299759      -52.551083      -13.100415
 H         -18.484299      -51.254078      -13.846723
 H         -18.596302      -51.898285      -15.576901
 H         -18.862324      -54.885555      -12.649534
 H         -17.639700      -55.209103      -13.795545
 H         -16.297853      -51.286171      -14.794909
 H         -16.424332      -52.998260      -15.240862
 H         -16.375372      -54.459888      -11.903769
 H         -17.582975      -53.249687      -11.600424
 H         -16.393833      -51.690861      -12.390810
 H         -15.245767      -52.827568      -13.138874
