20
 generated by VMD
 C         -18.053551      -48.557644       -7.344100
 N         -18.078262      -48.424149       -6.229504
 H         -16.351494      -48.218315      -10.272850
 H         -16.045494      -49.028969      -11.763036
 C         -16.334103      -48.108047      -11.336367
 C         -15.318206      -47.030914      -11.622866
 C         -17.712812      -47.769318      -11.815955
 C         -15.324435      -46.537842      -13.099111
 C         -17.651960      -47.401394      -13.334545
 C         -16.703074      -46.215828      -13.621760
 H         -14.282390      -47.441875      -11.388130
 H         -15.647768      -46.167351      -10.986738
 H         -18.399748      -48.613098      -11.642686
 H         -18.101898      -46.875198      -11.247817
 H         -14.880131      -47.293716      -13.765035
 H         -14.652495      -45.693771      -13.166395
 H         -18.568380      -46.990879      -13.721825
 H         -17.510075      -48.295223      -13.907375
 H         -16.712767      -45.927109      -14.652548
 H         -17.114473      -45.342255      -13.150313
