20
 generated by VMD
 C         -68.411026     -193.618774      -64.903664
 N         -68.383072     -194.630447      -65.428459
 H         -70.765663     -193.306808      -67.102188
 H         -68.457184     -192.598465      -64.506378
 C         -71.658180     -192.734192      -66.935303
 C         -71.745232     -191.369324      -66.366562
 C         -72.951149     -193.478409      -67.062599
 C         -73.223015     -190.838577      -66.096405
 C         -73.664139     -193.371429      -65.779869
 C         -73.958694     -191.903473      -65.277626
 H         -71.406136     -190.631561      -67.062119
 H         -71.248405     -191.207809      -65.336754
 H         -73.451675     -192.867386      -67.791069
 H         -72.802734     -194.568542      -67.373878
 H         -73.784416     -190.869858      -67.041046
 H         -73.285561     -189.920303      -65.529907
 H         -72.931015     -193.807877      -65.069206
 H         -74.574966     -193.912354      -65.802940
 H         -74.937569     -191.694321      -65.418114
 H         -73.637169     -191.829803      -64.150063
