20
 generated by VMD
 C         -40.716087     -102.546364      -35.002720
 N         -41.539028     -102.335747      -35.802219
 H         -39.750587     -104.999771      -32.609383
 H         -40.233868     -102.733192      -34.098103
 C         -38.839806     -104.862061      -32.182529
 C         -37.721172     -104.002518      -32.851669
 C         -38.507847     -105.996925      -31.234859
 C         -36.494381     -103.849968      -32.000671
 C         -37.245407     -105.722511      -30.421227
 C         -36.104084     -105.216286      -31.357727
 H         -38.105377     -102.983650      -33.071491
 H         -37.529411     -104.383995      -33.886692
 H         -39.404877     -106.148796      -30.605732
 H         -38.549404     -106.782585      -31.915939
 H         -36.454185     -102.989670      -31.364714
 H         -35.714165     -103.650436      -32.696163
 H         -36.812302     -106.493790      -29.880295
 H         -37.518826     -104.905487      -29.721466
 H         -35.107944     -105.237213      -31.030300
 H         -36.178047     -105.974983      -32.203209
