20
 generated by VMD
 C         -17.964809      -48.515644       -7.147303
 N         -17.619413      -47.914471       -6.284348
 H         -16.405315      -48.473499      -10.341342
 H         -15.801681      -48.904274      -11.993133
 C         -16.327017      -48.117260      -11.415551
 C         -15.416299      -46.833820      -11.429789
 C         -17.686483      -47.915642      -12.021015
 C         -15.336579      -46.254749      -12.803214
 C         -17.646425      -47.274887      -13.408616
 C         -16.726084      -45.972965      -13.430198
 H         -14.435466      -47.140652      -11.030491
 H         -15.672638      -46.108540      -10.657010
 H         -18.270830      -48.799828      -11.976507
 H         -18.202730      -47.234596      -11.372670
 H         -14.757092      -46.893200      -13.474652
 H         -14.801574      -45.307472      -12.689223
 H         -18.573881      -46.900547      -13.742602
 H         -17.257902      -48.086651      -14.124843
 H         -16.656584      -45.482883      -14.457190
 H         -17.255165      -45.250519      -12.747182
