20
 generated by VMD
 C         -39.081268     -112.220215      -35.873402
 N         -38.492874     -111.653870      -36.670010
 H         -40.642044     -114.690788      -35.069576
 H         -39.418179     -112.943016      -35.195873
 C         -41.395641     -114.119331      -35.448242
 C         -41.811119     -114.405365      -36.918205
 C         -42.242382     -113.182564      -34.687576
 C         -43.254910     -114.446030      -37.158489
 C         -43.717190     -113.480064      -34.850899
 C         -44.009075     -113.451050      -36.410000
 H         -41.344963     -115.288864      -37.240768
 H         -41.212540     -113.723221      -37.515083
 H         -42.045799     -113.171738      -33.591465
 H         -42.092117     -112.104462      -34.964767
 H         -43.621758     -115.436790      -37.164902
 H         -43.396782     -114.090637      -38.220608
 H         -44.262691     -112.668617      -34.438274
 H         -44.269485     -114.236534      -34.359241
 H         -45.102856     -113.502167      -36.483185
 H         -43.885818     -112.471542      -36.798450
