20
 generated by VMD
 C         -23.486334      -68.696358      -16.608706
 N         -23.210154      -69.474258      -15.771714
 H         -23.903379      -66.289169      -18.639917
 H         -23.547945      -67.919968      -17.289608
 C         -24.489929      -67.010765      -19.277872
 C         -23.869856      -67.718742      -20.569897
 C         -25.942417      -67.035652      -19.138308
 C         -24.491899      -69.103951      -20.757462
 C         -26.422838      -68.516586      -19.175646
 C         -26.049927      -69.117668      -20.453249
 H         -22.861612      -67.900505      -20.336329
 H         -23.993155      -67.100426      -21.511137
 H         -26.172821      -66.537811      -18.130764
 H         -26.539167      -66.497673      -19.938559
 H         -24.057417      -69.837753      -20.002047
 H         -24.178148      -69.537430      -21.803719
 H         -27.524900      -68.582123      -19.110563
 H         -25.994041      -69.045616      -18.258640
 H         -26.389227      -70.154831      -20.453350
 H         -26.450075      -68.651268      -21.333685
