20
 generated by VMD
 C         -64.995560     -175.614426      -55.801662
 N         -64.483543     -176.574081      -56.238159
 H         -64.079300     -174.107681      -58.312023
 H         -65.378731     -174.660141      -55.472080
 C         -64.608887     -173.534485      -59.000118
 C         -65.370140     -172.361328      -58.507603
 C         -64.026802     -173.315170      -60.314590
 C         -64.566345     -171.096283      -58.433567
 C         -63.184021     -172.027527      -60.343292
 C         -63.820595     -170.754532      -59.803143
 H         -65.761147     -172.799606      -57.516502
 H         -66.128777     -172.371582      -59.216507
 H         -63.374275     -174.147797      -60.506680
 H         -64.858749     -173.168610      -61.040585
 H         -63.851353     -171.151535      -57.597935
 H         -65.216980     -170.242966      -58.161800
 H         -62.780750     -172.041534      -61.370270
 H         -62.408607     -172.220779      -59.612507
 H         -63.001747     -169.983917      -59.711330
 H         -64.539398     -170.382507      -60.565075
