20
 generated by VMD
 C         -60.571812     -153.339096      -52.174107
 N         -60.470638     -152.576096      -51.233105
 H         -57.436935     -153.804367      -50.106251
 H         -60.658718     -154.033066      -52.996117
 C         -56.504055     -153.239410      -50.228825
 C         -55.298698     -153.702911      -49.483692
 C         -56.614086     -151.896851      -51.029751
 C         -54.035320     -152.880630      -49.958454
 C         -55.362576     -151.464096      -51.745422
 C         -54.243137     -151.573135      -50.655125
 H         -55.340412     -154.749329      -49.475651
 H         -55.448311     -153.416351      -48.446693
 H         -57.432213     -152.033478      -51.789921
 H         -56.937096     -151.095657      -50.378120
 H         -53.503555     -153.493927      -50.695679
 H         -53.220161     -152.968048      -49.146255
 H         -55.651585     -150.424881      -51.999645
 H         -55.172760     -152.067459      -52.550545
 H         -53.252026     -151.106339      -51.115223
 H         -54.396217     -150.811584      -49.920681
