20
 generated by VMD
 C         -78.976944     -208.095108      -76.101822
 N         -78.359238     -207.672638      -75.241570
 H         -79.341248     -210.043152      -73.390388
 H         -79.386909     -208.386230      -77.104340
 C         -78.724342     -210.153381      -72.488647
 C         -77.435379     -209.260437      -72.409050
 C         -78.899544     -211.352768      -71.504364
 C         -77.045555     -208.927414      -71.016136
 C         -78.614059     -210.829453      -70.055428
 C         -77.189316     -210.201797      -70.063118
 H         -77.633308     -208.323822      -72.893990
 H         -76.634346     -209.664612      -72.962158
 H         -79.975624     -211.632690      -71.526718
 H         -78.291138     -212.154434      -71.825714
 H         -77.716629     -208.114822      -70.820786
 H         -76.039085     -208.527863      -70.932045
 H         -78.890450     -211.510880      -69.287361
 H         -79.273056     -209.853058      -69.955185
 H         -77.083099     -209.774246      -69.051521
 H         -76.466835     -210.985580      -70.203835
