20
 generated by VMD
 C          -9.629344      -24.958523        0.605395
 N         -10.625176      -25.412596        0.423434
 H          -6.244980      -23.717398       -0.823499
 H          -7.980348      -23.231390       -1.122783
 C          -7.021594      -23.574068       -1.600169
 C          -7.174087      -24.899662       -2.366904
 C          -6.455176      -22.420967       -2.583220
 C          -8.116913      -24.694542       -3.573828
 C          -7.367951      -22.189169       -3.760772
 C          -7.678904      -23.480606       -4.517828
 H          -7.558133      -25.708923       -1.793440
 H          -6.091565      -25.166451       -2.683746
 H          -6.258984      -21.545824       -1.981456
 H          -5.438823      -22.705364       -2.920270
 H          -9.112057      -24.596504       -3.176811
 H          -8.158828      -25.594999       -4.133866
 H          -6.880826      -21.501917       -4.489771
 H          -8.324286      -21.724857       -3.489070
 H          -8.421566      -23.317150       -5.309688
 H          -6.797193      -23.722294       -5.115209
