20
 generated by VMD
 C         -61.612823     -172.357849      -54.938274
 N         -60.629513     -173.001694      -55.187420
 H         -62.137787     -170.694275      -58.508633
 H         -62.437889     -171.672699      -54.717556
 C         -62.828365     -170.127060      -57.835991
 C         -62.556747     -168.585754      -57.632202
 C         -64.228432     -170.508972      -57.582245
 C         -63.466404     -167.861938      -58.701401
 C         -65.095581     -169.692932      -58.604424
 C         -64.919518     -168.220963      -58.528564
 H         -61.385967     -168.374466      -57.794441
 H         -62.754990     -168.257401      -56.674473
 H         -64.477516     -171.605362      -57.711060
 H         -64.643814     -170.284973      -56.555611
 H         -63.068291     -168.102203      -59.641670
 H         -63.436211     -166.796936      -58.554802
 H         -66.168472     -169.842804      -58.384945
 H         -64.884041     -170.013077      -59.658970
 H         -65.519562     -167.603699      -59.308407
 H         -65.307785     -167.886993      -57.561634
