20
 generated by VMD
 C         -59.764439     -157.478180      -56.475288
 N         -60.646374     -157.260696      -57.145931
 H         -59.814445     -157.201340      -53.184101
 H         -58.976959     -157.781998      -55.852299
 C         -59.233707     -157.883743      -52.567020
 C         -57.986298     -157.360687      -51.996498
 C         -59.399826     -159.390213      -52.767006
 C         -57.383686     -158.264801      -50.798069
 C         -58.950249     -160.205017      -51.586651
 C         -57.473068     -159.770462      -51.178299
 H         -58.192940     -156.282761      -51.653908
 H         -57.215168     -157.278854      -52.780422
 H         -60.437038     -159.452209      -53.109943
 H         -58.754803     -159.696274      -53.528530
 H         -57.752426     -158.042557      -49.798378
 H         -56.264004     -158.036682      -50.658558
 H         -59.101440     -161.313324      -51.748306
 H         -59.641376     -159.939316      -50.775795
 H         -57.135952     -160.463440      -50.396332
 H         -56.904190     -159.875504      -52.091301
