20
 generated by VMD
 C         -50.470539     -131.904221      -47.089127
 N         -49.949333     -132.378433      -48.032082
 H         -48.758430     -131.422562      -43.557693
 H         -51.079113     -131.505188      -46.237667
 C         -48.683006     -132.360535      -43.004211
 C         -49.446987     -133.539505      -43.643867
 C         -48.569218     -132.219513      -41.513744
 C         -49.228767     -134.838455      -42.792759
 C         -48.431557     -133.536209      -40.822952
 C         -49.394604     -134.640320      -41.292450
 H         -49.025429     -133.605057      -44.642097
 H         -50.434704     -133.182846      -43.811714
 H         -47.677937     -131.667404      -41.265526
 H         -49.525002     -131.685959      -41.230145
 H         -48.254696     -135.294205      -43.031399
 H         -49.925396     -135.544540      -43.259052
 H         -48.800243     -133.322235      -39.751675
 H         -47.425468     -133.919159      -40.832741
 H         -49.096600     -135.539124      -40.858906
 H         -50.485306     -134.541580      -41.149632
