20
 generated by VMD
 C         -79.472397     -205.028625      -70.868408
 N         -80.553894     -205.387131      -70.889313
 H         -77.062645     -203.212860      -69.424545
 H         -78.505951     -204.630096      -71.082100
 C         -75.924301     -203.123489      -69.491821
 C         -75.502419     -201.901215      -70.219406
 C         -75.003265     -204.239853      -69.131310
 C         -73.966949     -201.731110      -70.481842
 C         -73.566269     -203.734924      -68.950455
 C         -73.166550     -202.917679      -70.261330
 H         -75.799118     -200.916580      -69.769531
 H         -76.010635     -201.888535      -71.170990
 H         -75.380463     -204.803513      -68.258820
 H         -75.121529     -205.027664      -69.938614
 H         -73.658875     -200.887115      -69.834656
 H         -73.829384     -201.377716      -71.528534
 H         -72.887917     -204.564255      -68.894646
 H         -73.364288     -203.169876      -67.870392
 H         -72.040077     -202.632935      -70.413696
 H         -73.316284     -203.626389      -71.134949
