20
 generated by VMD
 C         -41.057777     -104.291801      -35.818707
 N         -41.975620     -104.894554      -36.208298
 H         -38.316250     -103.976166      -33.348194
 H         -40.216923     -103.679367      -35.416771
 C         -38.149555     -105.025970      -33.014347
 C         -36.833645     -105.318344      -32.229225
 C         -39.294369     -105.958412      -33.161556
 C         -37.124165     -106.370171      -31.170441
 C         -39.246506     -107.011719      -32.092129
 C         -37.876308     -107.494385      -31.702745
 H         -36.404312     -104.465897      -31.732254
 H         -36.003845     -105.805367      -32.787457
 H         -40.222317     -105.321213      -33.095215
 H         -39.338200     -106.418198      -34.154846
 H         -37.609894     -105.938820      -30.253660
 H         -36.122265     -106.477043      -30.723150
 H         -39.713589     -107.874908      -32.629921
 H         -39.938557     -106.581848      -31.295918
 H         -38.001186     -108.379402      -31.081528
 H         -37.369438     -107.859474      -32.636395
