20
 generated by VMD
 C          -1.929099      -13.159113        0.519342
 N          -1.581737      -13.390415        1.561761
 H          -3.580019      -16.509918        1.746731
 H          -3.916382      -16.106846        0.141345
 C          -4.397702      -16.360670        1.081953
 C          -5.285746      -15.234361        1.495895
 C          -5.085897      -17.703911        0.909646
 C          -6.625470      -15.184566        0.695138
 C          -6.315912      -17.650877        0.088638
 C          -7.254796      -16.569248        0.653010
 H          -4.789351      -14.209488        1.462010
 H          -5.624849      -15.467237        2.489879
 H          -4.359227      -18.488638        0.636694
 H          -5.382307      -18.000118        1.927269
 H          -6.379573      -14.752610       -0.255957
 H          -7.265446      -14.453269        1.189721
 H          -6.803875      -18.640112        0.128589
 H          -6.141702      -17.508606       -1.009182
 H          -8.079258      -16.532230       -0.054946
 H          -7.686773      -16.870916        1.623931
