20
 generated by VMD
 C         -22.677399      -55.498989      -16.756390
 N         -23.086103      -54.486721      -16.817280
 H         -19.572451      -55.512737      -14.625438
 H         -22.666519      -56.626747      -16.434975
 C         -19.665394      -56.611607      -14.599240
 C         -20.691877      -56.944477      -13.643723
 C         -18.820393      -57.662018      -15.242820
 C         -21.005489      -58.432178      -13.418364
 C         -19.092587      -59.066395      -14.816107
 C         -19.647270      -59.203903      -13.378406
 H         -21.575983      -56.478714      -14.034000
 H         -20.460974      -56.437878      -12.682856
 H         -18.934340      -57.631264      -16.314461
 H         -17.819286      -57.380409      -14.865728
 H         -21.554020      -58.786751      -14.274908
 H         -21.605371      -58.599545      -12.504254
 H         -18.243258      -59.670841      -14.988654
 H         -19.830751      -59.553413      -15.476553
 H         -19.853931      -60.223564      -13.066334
 H         -18.896978      -58.699028      -12.698396
