20
 generated by VMD
 C         -68.747391     -188.346588      -67.427467
 N         -68.192299     -187.428894      -67.823120
 H         -68.165184     -187.037552      -63.703213
 H         -69.255516     -189.251251      -67.226189
 C         -69.156448     -187.402237      -63.508698
 C         -69.245186     -188.441528      -62.312386
 C         -70.424683     -186.565704      -63.692886
 C         -70.446434     -189.287491      -62.367737
 C         -71.651688     -187.535141      -63.834263
 C         -71.725494     -188.456100      -62.661537
 H         -69.252647     -187.928024      -61.420044
 H         -68.330460     -188.967957      -62.306866
 H         -70.611038     -186.054016      -62.747196
 H         -70.423393     -185.858597      -64.617363
 H         -70.642456     -189.762512      -61.407501
 H         -70.386353     -190.171448      -63.034069
 H         -71.513588     -188.115280      -64.709076
 H         -72.534386     -186.972961      -63.969845
 H         -72.049652     -187.936752      -61.665585
 H         -72.536301     -189.223312      -62.679214
