20
 generated by VMD
 C         -64.527939     -175.252106      -55.925270
 N         -63.686420     -175.580978      -56.673405
 H         -65.654694     -174.219284      -58.371517
 H         -65.252441     -174.871048      -55.187149
 C         -65.067543     -173.283051      -58.716984
 C         -65.543266     -171.888016      -58.308399
 C         -64.115868     -173.348572      -59.967419
 C         -64.260498     -170.878677      -58.289871
 C         -63.193069     -172.083008      -60.054935
 C         -63.782440     -170.740814      -59.673717
 H         -65.951263     -171.738480      -57.242035
 H         -66.212631     -171.459412      -59.000893
 H         -63.477539     -174.187958      -59.911015
 H         -64.671883     -173.371780      -60.939495
 H         -63.421013     -171.129730      -57.522747
 H         -64.618904     -169.812668      -57.997593
 H         -62.851555     -172.056305      -61.117565
 H         -62.352821     -172.131058      -59.400356
 H         -62.923782     -170.000885      -59.634727
 H         -64.534233     -170.309433      -60.314713
