20
 generated by VMD
 C          -5.405705      -21.215998        1.609856
 N          -5.534306      -20.867422        2.663824
 H          -5.065443      -18.703979       -0.622959
 H          -5.761154      -20.282181        0.069279
 C          -5.796742      -19.465836       -0.915703
 C          -5.527367      -20.036140       -2.346205
 C          -7.137643      -18.747808       -0.938568
 C          -6.620992      -21.107452       -2.672947
 C          -8.254976      -19.763359       -1.128866
 C          -8.034268      -20.519835       -2.460266
 H          -4.518552      -20.509687       -2.359100
 H          -5.573350      -19.243778       -3.045892
 H          -7.335959      -18.203150        0.024208
 H          -7.226411      -17.912676       -1.629448
 H          -6.409304      -21.952414       -1.988995
 H          -6.540850      -21.515020       -3.718496
 H          -9.235757      -19.246304       -1.114468
 H          -8.316674      -20.435259       -0.281892
 H          -8.710771      -21.339521       -2.445620
 H          -8.270893      -19.902782       -3.301084
