20
 generated by VMD
 C          -6.873745      -23.307915        2.862517
 N          -6.931759      -22.586023        2.028227
 H          -8.052476      -22.892000       -0.665932
 H          -9.090442      -22.276196       -1.969987
 C          -8.076307      -22.333467       -1.653093
 C          -7.130259      -23.028664       -2.611296
 C          -7.530768      -20.918444       -1.368661
 C          -7.046574      -22.302622       -3.889233
 C          -7.471663      -20.129883       -2.697195
 C          -6.576254      -20.869011       -3.726681
 H          -7.519471      -23.983856       -2.839517
 H          -6.189416      -23.388002       -2.105553
 H          -8.331868      -20.398315       -0.814661
 H          -6.542932      -20.901669       -0.887935
 H          -7.975764      -22.346283       -4.451436
 H          -6.268505      -22.757915       -4.497930
 H          -6.989493      -19.160845       -2.586998
 H          -8.485709      -20.071436       -3.096258
 H          -6.576690      -20.375242       -4.668205
 H          -5.560757      -20.820143       -3.360293
