20
 generated by VMD
 C         -24.210657      -69.906265      -16.628979
 N         -24.486963      -70.290352      -15.558660
 H         -23.593075      -67.171555      -18.960932
 H         -24.188087      -69.544693      -17.577936
 C         -24.309185      -67.919456      -19.434912
 C         -23.858965      -68.559181      -20.755634
 C         -25.761368      -67.646118      -19.440186
 C         -24.715195      -69.804893      -21.010250
 C         -26.677847      -68.905342      -19.851330
 C         -26.184875      -69.609756      -21.222658
 H         -22.862741      -68.898560      -20.755945
 H         -24.012844      -67.796478      -21.449203
 H         -26.178171      -67.248291      -18.492167
 H         -26.012150      -66.739708      -20.100838
 H         -24.441206      -70.456230      -20.245228
 H         -24.218832      -70.261993      -21.889017
 H         -27.754045      -68.706139      -19.998730
 H         -26.415134      -69.717323      -19.152485
 H         -26.674541      -70.568626      -21.456293
 H         -26.560452      -69.008659      -22.047075
