20
 generated by VMD
 C         -30.720270      -78.282806      -25.118109
 N         -31.337231      -77.344818      -25.037987
 H         -29.060205      -76.943062      -22.370253
 H         -29.996185      -79.122871      -25.368052
 C         -28.756182      -77.956657      -22.566078
 C         -27.500990      -78.228249      -23.291903
 C         -29.504627      -79.067970      -21.990782
 C         -26.556828      -79.019150      -22.478859
 C         -28.493879      -80.058884      -21.285908
 C         -27.088293      -80.308243      -21.964682
 H         -27.044716      -77.352104      -23.554352
 H         -27.718979      -78.708023      -24.188908
 H         -30.105919      -78.711693      -21.140524
 H         -30.091173      -79.618172      -22.692257
 H         -26.270304      -78.317917      -21.672657
 H         -25.677101      -79.261971      -23.061752
 H         -28.923765      -81.055954      -21.101076
 H         -28.322096      -79.721916      -20.301504
 H         -26.369949      -80.901779      -21.230890
 H         -27.251581      -80.927757      -22.862165
