20
 generated by VMD
 C         -29.183113      -81.185249      -27.452829
 N         -29.926872      -80.332703      -27.623007
 H         -28.395998      -82.534767      -24.077187
 H         -28.420803      -82.035538      -27.306520
 C         -29.255037      -83.133789      -23.836132
 C         -29.627596      -83.433769      -22.402744
 C         -29.948231      -83.810806      -24.981812
 C         -31.183987      -83.767494      -22.203306
 C         -31.473780      -83.988235      -24.743383
 C         -31.856152      -84.479355      -23.358259
 H         -29.339201      -82.660927      -21.652645
 H         -29.047161      -84.388496      -21.991716
 H         -29.792149      -83.385117      -25.960285
 H         -29.401339      -84.778442      -24.980370
 H         -31.854548      -82.955864      -21.837406
 H         -31.326025      -84.414787      -21.220596
 H         -31.854136      -84.793198      -25.557026
 H         -31.994913      -83.000015      -24.995083
 H         -32.905602      -84.334686      -23.238184
 H         -31.671814      -85.602226      -23.412958
