20
 generated by VMD
 C         -59.349937     -158.262680      -56.451427
 N         -58.732185     -158.575256      -57.317032
 H         -60.560825     -158.022049      -53.160614
 H         -59.956799     -158.030731      -55.592228
 C         -60.010040     -158.941940      -53.041153
 C         -58.595451     -158.834305      -52.587559
 C         -60.641045     -160.262115      -53.288551
 C         -58.161003     -159.895966      -51.519730
 C         -60.196724     -161.277496      -52.177128
 C         -58.672726     -161.264984      -51.833553
 H         -58.385269     -157.852203      -52.208271
 H         -57.881062     -158.882767      -53.389942
 H         -61.651447     -160.027939      -53.293888
 H         -60.431892     -160.705902      -54.282120
 H         -58.301651     -159.462967      -50.471317
 H         -57.148827     -160.014664      -51.577614
 H         -60.462070     -162.356125      -52.277008
 H         -60.708218     -160.936005      -51.299782
 H         -58.557507     -162.040604      -51.067947
 H         -58.176914     -161.636307      -52.671082
