20
 generated by VMD
 C          -7.376365      -23.450693        1.766930
 N          -7.494470      -22.758276        2.615944
 H          -8.967956      -23.584587       -1.424291
 H          -9.489697      -22.336309       -2.621064
 C          -8.596230      -22.857891       -2.223402
 C          -7.667529      -23.606607       -3.220600
 C          -7.814476      -21.706964       -1.505298
 C          -6.957434      -22.635872       -4.170890
 C          -7.075844      -20.744270       -2.522145
 C          -6.177416      -21.561729       -3.424182
 H          -8.191749      -24.300800       -3.835485
 H          -6.976427      -24.200750       -2.531402
 H          -8.489442      -21.190170       -0.847136
 H          -7.012750      -22.110106       -0.882383
 H          -7.788379      -22.118351       -4.710978
 H          -6.227848      -23.159559       -4.826713
 H          -6.467257      -19.997496       -2.025904
 H          -7.793717      -20.280758       -3.189754
 H          -5.566134      -20.948229       -4.120489
 H          -5.442981      -22.106119       -2.759043
