20
 generated by VMD
 C         -78.851646     -207.930710      -76.540855
 N         -78.501686     -207.851181      -75.398376
 H         -79.403664     -210.092392      -73.353363
 H         -78.926765     -207.854736      -77.574242
 C         -78.816025     -210.119644      -72.450256
 C         -77.515144     -209.485458      -72.393036
 C         -78.995880     -211.398621      -71.557304
 C         -77.084198     -209.116989      -70.888649
 C         -78.607574     -210.998077      -70.055153
 C         -77.184883     -210.265579      -69.879578
 H         -77.474869     -208.642090      -73.046616
 H         -76.812088     -210.176865      -72.812424
 H         -80.081459     -211.544250      -71.755768
 H         -78.416977     -212.233231      -71.862595
 H         -77.772118     -208.318787      -70.589760
 H         -76.083504     -208.660461      -70.941582
 H         -78.543541     -211.793289      -69.365288
 H         -79.535507     -210.348740      -69.792206
 H         -76.964630     -209.834869      -68.913284
 H         -76.475060     -211.058533      -70.026054
