20
 generated by VMD
 C         -28.110350      -83.507904      -27.350176
 N         -27.341669      -83.426994      -26.511711
 H         -30.829840      -84.738853      -26.407619
 H         -29.004250      -83.474983      -28.073647
 C         -31.670406      -85.168846      -25.774761
 C         -31.535641      -85.114197      -24.273207
 C         -32.104038      -86.453568      -26.468340
 C         -32.703434      -85.846062      -23.536674
 C         -33.323353      -87.075340      -25.788296
 C         -32.992496      -87.199547      -24.190151
 H         -31.622980      -84.057045      -24.073675
 H         -30.452215      -85.385323      -24.036758
 H         -32.511253      -86.052185      -27.448784
 H         -31.285774      -87.153366      -26.616016
 H         -33.465065      -85.072296      -23.515177
 H         -32.316265      -86.098846      -22.485203
 H         -33.597515      -88.089233      -26.091841
 H         -34.148338      -86.448570      -25.876127
 H         -33.701912      -87.788765      -23.673090
 H         -32.088963      -87.837311      -24.357723
