20
 generated by VMD
 C         -65.193932     -175.971512      -55.839767
 N         -65.001968     -177.138000      -55.750061
 H         -64.982407     -174.611679      -59.396046
 H         -65.241211     -174.905136      -55.957176
 C         -64.498123     -173.673660      -59.253265
 C         -65.282516     -172.604111      -58.580299
 C         -63.834698     -173.242737      -60.455212
 C         -64.514679     -171.233902      -58.486961
 C         -63.089325     -171.940674      -60.469284
 C         -64.071274     -170.782242      -60.018036
 H         -65.570175     -173.018082      -57.498306
 H         -66.221207     -172.611511      -59.083378
 H         -63.033089     -173.947098      -60.765388
 H         -64.582573     -173.225555      -61.385563
 H         -63.724838     -171.291840      -57.793465
 H         -65.237213     -170.496460      -58.212505
 H         -62.553440     -171.807587      -61.442310
 H         -62.226929     -171.936356      -59.771709
 H         -63.546005     -169.807022      -59.906765
 H         -64.998528     -170.617371      -60.632088
