20
 generated by VMD
 C         -79.619667     -205.397049      -71.045647
 N         -80.246910     -206.271667      -71.445961
 H         -77.282845     -202.930542      -70.346085
 H         -79.040649     -204.561203      -70.937080
 C         -76.297310     -203.333908      -70.238335
 C         -75.271286     -202.303970      -70.466499
 C         -75.862312     -204.697083      -70.033089
 C         -73.757156     -202.748230      -70.469170
 C         -74.645432     -204.916565      -69.163353
 C         -73.525574     -203.933640      -69.625191
 H         -75.358253     -201.602631      -69.625664
 H         -75.455154     -201.744598      -71.418282
 H         -76.680534     -205.272781      -69.488495
 H         -75.893906     -205.185654      -71.072266
 H         -73.144241     -201.896103      -70.300308
 H         -73.558342     -202.946167      -71.481758
 H         -74.339882     -205.899994      -69.002739
 H         -74.982819     -204.591660      -68.125092
 H         -73.014130     -203.598969      -68.801567
 H         -72.833588     -204.580048      -70.118782
