20
 generated by VMD
 C         -70.422806     -196.658432      -65.259705
 N         -69.695503     -197.394485      -65.803383
 H         -73.698891     -196.176819      -65.337715
 H         -71.208740     -196.182449      -64.708832
 C         -73.783470     -195.538422      -66.236961
 C         -73.128899     -194.141922      -66.070503
 C         -74.240227     -195.958023      -67.581566
 C         -72.371567     -193.918381      -67.447784
 C         -74.622795     -194.702652      -68.382713
 C         -73.442093     -193.791428      -68.518448
 H         -72.449921     -193.897980      -65.163651
 H         -73.904449     -193.472260      -65.852112
 H         -73.444962     -196.585373      -68.049789
 H         -75.152222     -196.507599      -67.367615
 H         -71.624100     -194.724609      -67.721573
 H         -71.771248     -192.962051      -67.410545
 H         -75.303802     -194.129562      -67.775269
 H         -75.270828     -195.027496      -69.235840
 H         -72.975449     -193.979477      -69.395241
 H         -73.877884     -192.741318      -68.453682
