20
 generated by VMD
 C         -48.766376     -140.825546      -45.347618
 N         -47.653267     -140.890869      -45.336464
 H         -51.331326     -138.659531      -45.857487
 H         -49.826462     -140.911942      -45.393112
 C         -52.170822     -139.239075      -46.193066
 C         -52.626587     -139.348755      -47.582462
 C         -52.884243     -139.753677      -45.023346
 C         -53.364220     -140.673325      -47.836166
 C         -53.684235     -140.937561      -45.351933
 C         -54.383514     -140.968018      -46.785950
 H         -51.818306     -139.206085      -48.276478
 H         -53.275009     -138.469711      -47.734085
 H         -52.226875     -140.166870      -44.189758
 H         -53.540508     -138.858688      -44.617939
 H         -52.567818     -141.506027      -47.877850
 H         -53.850941     -140.661362      -48.891239
 H         -54.412628     -141.286758      -44.528828
 H         -53.108318     -141.862717      -45.374283
 H         -54.763130     -141.943573      -47.072395
 H         -55.158035     -140.334854      -46.844589
