20
 generated by VMD
 C         -50.339275     -129.527405      -43.465370
 N         -50.855167     -129.678452      -44.538631
 H         -48.965244     -127.868927      -40.736526
 H         -49.957504     -129.316330      -42.437637
 C         -47.925930     -128.153015      -40.846355
 C         -47.616859     -129.558228      -40.741989
 C         -46.941319     -127.070831      -40.702995
 C         -46.380791     -129.952988      -41.560585
 C         -45.745255     -127.346115      -41.573410
 C         -45.284927     -128.891281      -41.289433
 H         -48.393776     -130.285294      -41.070908
 H         -47.512703     -129.738159      -39.700283
 H         -47.347668     -126.136902      -40.951447
 H         -46.597439     -126.963310      -39.599518
 H         -46.710205     -129.943283      -42.617889
 H         -46.073517     -131.012375      -41.412720
 H         -44.853638     -126.844299      -41.352669
 H         -46.027637     -127.271606      -42.566761
 H         -44.508492     -129.025482      -41.991348
 H         -45.059948     -129.039185      -40.207672
