20
 generated by VMD
 C         -29.516920      -74.521553      -19.987013
 N         -30.609604      -74.706802      -20.292727
 H         -25.801744      -73.754005      -18.774368
 H         -28.438820      -74.674362      -19.861446
 C         -25.709919      -73.646599      -19.858189
 C         -25.490072      -74.842758      -20.725103
 C         -25.512098      -72.327805      -20.476767
 C         -26.104216      -74.614365      -22.121962
 C         -26.111494      -72.176849      -21.909676
 C         -25.642269      -73.346016      -22.831379
 H         -26.163298      -75.628296      -20.237818
 H         -24.479300      -75.077721      -20.845556
 H         -26.148407      -71.605476      -19.995127
 H         -24.389360      -72.090675      -20.459084
 H         -27.182835      -74.633644      -22.216499
 H         -25.716333      -75.535454      -22.595757
 H         -25.836872      -71.174637      -22.404144
 H         -27.192545      -72.177780      -21.939566
 H         -26.165693      -73.253967      -23.822435
 H         -24.492132      -73.350060      -22.925003
