20
 generated by VMD
 C         -35.221748      -97.700783      -25.620798
 N         -35.651508      -97.553627      -26.685534
 H         -35.859913      -94.892235      -27.914551
 H         -34.829464      -97.905724      -24.721596
 C         -35.348061      -94.728859      -28.848200
 C         -35.828308      -95.538673      -29.907349
 C         -34.011261      -94.104004      -29.029074
 C         -35.673607      -94.988472      -31.287203
 C         -33.828552      -93.489586      -30.407190
 C         -34.199871      -94.495529      -31.474756
 H         -36.850632      -95.869446      -29.853256
 H         -35.234779      -96.505363      -29.928240
 H         -33.997849      -93.402557      -28.203243
 H         -33.260815      -94.851509      -28.796698
 H         -36.252361      -94.079460      -31.380533
 H         -36.056313      -95.692993      -32.100136
 H         -32.792427      -93.272781      -30.660023
 H         -34.361298      -92.528336      -30.470629
 H         -34.082615      -94.037567      -32.480480
 H         -33.430527      -95.319260      -31.200840
