20
 generated by VMD
 C         -30.988890      -77.810760      -25.304914
 N         -31.910435      -77.085426      -25.451874
 H         -28.980652      -76.751160      -22.058987
 H         -29.998795      -78.405487      -25.505856
 C         -28.598251      -77.715790      -22.224741
 C         -27.452427      -78.008446      -23.237808
 C         -29.109158      -78.956345      -21.504124
 C         -26.371067      -78.829880      -22.561983
 C         -27.977764      -79.804611      -20.817389
 C         -26.875555      -80.120102      -21.892187
 H         -26.984184      -77.012360      -23.382847
 H         -27.797323      -78.639755      -24.076849
 H         -29.685692      -78.628830      -20.666449
 H         -29.590681      -79.714058      -22.164635
 H         -25.790274      -78.268845      -21.813536
 H         -25.554321      -78.950470      -23.321581
 H         -28.330219      -80.571793      -20.208652
 H         -27.501232      -79.192924      -20.042412
 H         -26.064531      -80.729897      -21.600002
 H         -27.416317      -80.786507      -22.658293
