20
 generated by VMD
 C          -1.975486      -13.334527        0.592971
 N          -1.623988      -13.167721        1.644399
 H          -3.541062      -16.809618        1.672967
 H          -4.009885      -16.441866       -0.031639
 C          -4.393134      -16.640013        0.991487
 C          -5.252536      -15.461063        1.439453
 C          -5.241884      -17.907112        0.935320
 C          -6.444739      -15.214205        0.505963
 C          -6.485618      -17.706102        0.109128
 C          -7.292346      -16.521404        0.549675
 H          -4.612068      -14.587015        1.543659
 H          -5.688166      -15.641989        2.429508
 H          -4.730018      -18.753601        0.592897
 H          -5.565252      -18.146528        1.934794
 H          -6.179377      -14.955697       -0.536711
 H          -7.031488      -14.373081        0.830576
 H          -7.160674      -18.561327        0.251893
 H          -6.284564      -17.706522       -0.930015
 H          -8.124622      -16.407690       -0.156105
 H          -7.769836      -16.665064        1.534990
