20
 generated by VMD
 C         -28.501417      -74.078323      -18.702244
 N         -29.360172      -73.551834      -18.154247
 H         -25.831861      -72.653427      -18.992937
 H         -27.625690      -74.520889      -18.873430
 C         -25.560823      -72.331673      -19.958054
 C         -24.780464      -73.337746      -20.689182
 C         -25.778189      -70.969574      -20.452316
 C         -25.511473      -73.401329      -22.050991
 C         -26.238932      -71.065125      -21.954144
 C         -25.419544      -72.129524      -22.666166
 H         -24.832460      -74.453796      -20.297361
 H         -23.716108      -73.067146      -20.883825
 H         -26.579605      -70.466515      -19.970570
 H         -24.824635      -70.357178      -20.406372
 H         -26.503561      -73.846458      -21.852966
 H         -24.936481      -74.117905      -22.662590
 H         -26.178715      -69.965599      -22.392616
 H         -27.285666      -71.453613      -21.945847
 H         -25.885216      -72.366997      -23.668816
 H         -24.431923      -71.767052      -22.913877
