20
 generated by VMD
 C         -17.877369      -48.445606       -7.003313
 N         -17.386782      -47.671886       -6.382852
 H         -16.506754      -48.465527      -10.353411
 H         -15.770503      -48.922642      -11.972873
 C         -16.319767      -48.187508      -11.380811
 C         -15.537551      -46.907150      -11.375447
 C         -17.653257      -47.888866      -12.060149
 C         -15.438908      -45.996124      -12.689878
 C         -17.443983      -47.212769      -13.453773
 C         -16.794445      -45.831562      -13.308229
 H         -14.502559      -47.149788      -11.121943
 H         -15.835040      -46.231209      -10.556207
 H         -18.393084      -48.734962      -12.060308
 H         -18.185122      -47.138130      -11.433850
 H         -14.710043      -46.451672      -13.370420
 H         -14.999717      -45.010529      -12.412251
 H         -18.448553      -47.187546      -13.899768
 H         -16.722239      -47.718822      -14.173209
 H         -16.762131      -45.264210      -14.247127
 H         -17.388561      -45.219067      -12.659675
