20
 generated by VMD
 C         -73.839943     -201.587311      -65.337051
 N         -72.850037     -201.073486      -65.641937
 H         -74.826950     -198.036743      -66.805313
 H         -74.780991     -201.982452      -64.880356
 C         -74.726669     -197.537170      -67.825745
 C         -74.760208     -196.048447      -67.890572
 C         -74.128883     -198.458084      -68.867203
 C         -73.488365     -195.406448      -68.472061
 C         -73.633286     -197.661453      -70.006844
 C         -72.805260     -196.402466      -69.527229
 H         -74.886246     -195.938187      -66.784676
 H         -75.569946     -195.750977      -68.452866
 H         -73.244041     -199.002609      -68.411507
 H         -74.943703     -199.188995      -69.264626
 H         -72.798157     -195.108292      -67.665680
 H         -73.875908     -194.504654      -68.907982
 H         -74.412743     -197.263458      -70.593666
 H         -73.113403     -198.258240      -70.780136
 H         -71.886719     -196.699860      -69.112823
 H         -72.445862     -195.763596      -70.448708
