20
 generated by VMD
 C         -25.847967      -71.224045      -17.097515
 N         -25.679205      -71.726532      -16.052261
 H         -24.235067      -68.695801      -18.655880
 H         -25.827593      -70.790390      -18.066774
 C         -24.679182      -69.240158      -19.473848
 C         -23.864378      -70.090302      -20.593430
 C         -25.755604      -68.426826      -20.061279
 C         -24.929007      -71.089279      -21.328009
 C         -26.730799      -69.380051      -20.721905
 C         -26.096897      -70.246216      -21.857344
 H         -23.016764      -70.611717      -20.008606
 H         -23.477724      -69.310150      -21.283667
 H         -26.310785      -67.767166      -19.370705
 H         -25.435314      -67.626144      -20.808605
 H         -25.352581      -71.732063      -20.530537
 H         -24.463669      -71.651390      -22.131290
 H         -27.652733      -68.872612      -21.003412
 H         -27.093716      -70.039627      -19.978247
 H         -26.796200      -70.860977      -22.485077
 H         -25.613129      -69.646667      -22.641926
