20
 generated by VMD
 C         -69.294861     -181.347076      -61.230915
 N         -69.646629     -180.228668      -61.290596
 H         -66.998917     -179.121002      -59.412891
 H         -68.831825     -182.350967      -61.133858
 C         -66.230789     -178.412521      -59.811459
 C         -65.658607     -178.707138      -61.226147
 C         -65.605217     -177.591354      -58.798252
 C         -65.152847     -177.332138      -61.726700
 C         -65.012177     -176.296661      -59.434814
 C         -64.306580     -176.614426      -60.740929
 H         -66.573448     -178.971863      -61.671062
 H         -64.996208     -179.534439      -61.140129
 H         -66.202179     -177.360153      -57.926701
 H         -64.665764     -178.058884      -58.408726
 H         -66.017822     -176.780212      -62.108387
 H         -64.536949     -177.487000      -62.587612
 H         -64.178993     -175.849045      -58.844372
 H         -65.782669     -175.537613      -59.490746
 H         -63.880077     -175.645966      -61.082035
 H         -63.370811     -177.269440      -60.366032
