20
 generated by VMD
 C         -62.527519     -174.044296      -55.166866
 N         -63.652294     -174.135223      -55.243519
 H         -62.447952     -172.340225      -57.988869
 H         -61.453110     -173.991669      -55.215439
 C         -63.128078     -171.607117      -58.383060
 C         -63.091606     -170.372787      -57.609753
 C         -64.128624     -171.932541      -59.353313
 C         -63.737514     -169.194931      -58.205349
 C         -64.646996     -170.776535      -60.172928
 C         -64.914024     -169.611893      -59.158226
 H         -61.981560     -170.067017      -57.450394
 H         -63.554321     -170.490677      -56.641376
 H         -63.583702     -172.695419      -60.087063
 H         -65.018822     -172.561935      -59.051983
 H         -62.967125     -168.787781      -58.810829
 H         -64.077835     -168.550446      -57.500328
 H         -65.603760     -170.973984      -60.703217
 H         -63.831501     -170.423111      -60.925961
 H         -65.175972     -168.678024      -59.693142
 H         -65.808159     -169.903854      -58.570358
