20
 generated by VMD
 C         -30.950794      -78.288918      -26.191414
 N         -31.727751      -77.553070      -25.691540
 H         -29.408577      -77.990555      -23.512442
 H         -30.119263      -79.018677      -26.430382
 C         -28.849413      -78.611908      -22.798735
 C         -27.394896      -78.783882      -23.048052
 C         -29.590727      -79.758759      -22.194853
 C         -26.653622      -79.729233      -22.122776
 C         -28.854298      -80.663559      -21.293110
 C         -27.484280      -81.013153      -21.926929
 H         -26.808296      -77.797302      -22.993319
 H         -27.304571      -78.930450      -24.207470
 H         -30.364828      -79.344872      -21.651247
 H         -30.080503      -80.226608      -23.088856
 H         -26.531910      -79.300797      -21.112179
 H         -25.616768      -79.939148      -22.613964
 H         -29.445286      -81.532486      -21.168680
 H         -28.773289      -80.133316      -20.441196
 H         -26.937910      -81.593498      -21.191362
 H         -27.557003      -81.564468      -22.880798
