20
 generated by VMD
 C         -12.915322      -30.142756       -8.371037
 N         -13.861754      -30.503334       -8.833496
 H         -11.036857      -30.849455       -4.953854
 H         -10.969249      -31.613636       -3.475437
 C         -10.835806      -31.867077       -4.511929
 C          -9.425364      -32.439949       -4.880349
 C         -11.886431      -32.811562       -4.888848
 C          -9.220454      -33.837055       -4.226099
 C         -11.773229      -34.152554       -4.258320
 C         -10.357736      -34.823246       -4.497762
 H          -8.732553      -31.765207       -4.461377
 H          -9.356956      -32.451691       -5.991003
 H         -12.827220      -32.388569       -4.498941
 H         -11.965940      -32.862938       -5.986984
 H          -9.136364      -33.702621       -3.097981
 H          -8.272226      -34.222496       -4.666090
 H         -12.538073      -34.840519       -4.690877
 H         -11.890525      -34.075645       -3.141484
 H         -10.314871      -35.659260       -3.791837
 H         -10.228310      -35.294952       -5.472350
