20
 generated by VMD
 C         -12.634824      -27.686863       -4.473442
 N         -13.718394      -27.897230       -4.525190
 H         -10.685107      -29.519285       -2.573465
 H         -10.583239      -28.170769       -3.578437
 C          -9.953432      -28.993757       -3.208695
 C          -9.453570      -29.835035       -4.339547
 C          -8.747618      -28.521803       -2.410394
 C          -8.466914      -29.049067       -5.216315
 C          -7.826466      -27.727785       -3.201537
 C          -7.324070      -28.462063       -4.427566
 H         -10.296606      -30.221350       -4.964645
 H          -8.986520      -30.731888       -4.016326
 H          -9.161245      -27.920925       -1.569778
 H          -8.296976      -29.409748       -1.846908
 H          -9.036401      -28.266203       -5.644032
 H          -8.138562      -29.668621       -6.007789
 H          -6.910880      -27.395609       -2.604013
 H          -8.252668      -26.790365       -3.523938
 H          -6.755613      -27.719168       -4.961750
 H          -6.650852      -29.233171       -3.950168
