20
 generated by VMD
 C         -45.011406     -122.710419      -35.429005
 N         -45.360302     -123.746872      -35.041725
 H         -45.275684     -122.916634      -39.244156
 H         -44.615711     -121.674431      -35.672569
 C         -44.912834     -121.883148      -39.493244
 C         -43.523323     -121.429062      -39.567627
 C         -45.935650     -120.666756      -39.470959
 C         -43.277344     -120.457031      -40.798630
 C         -45.799103     -119.942398      -40.787209
 C         -44.328060     -119.440804      -41.008881
 H         -42.815254     -122.283630      -39.467625
 H         -43.325058     -120.708397      -38.842560
 H         -46.979572     -121.099548      -39.244682
 H         -45.691872     -119.994453      -38.561443
 H         -43.195717     -121.039864      -41.699345
 H         -42.300095     -119.996971      -40.826275
 H         -46.461956     -119.072372      -40.786068
 H         -46.278069     -120.425911      -41.590633
 H         -44.310223     -119.167046      -42.103210
 H         -44.210831     -118.442444      -40.407688
