20
 generated by VMD
 C          -7.023887      -23.298279        3.008183
 N          -6.258314      -22.608902        2.539381
 H          -6.736257      -21.647598       -0.204801
 H          -8.374921      -21.918653       -0.963152
 C          -7.328579      -21.554287       -1.156831
 C          -6.529606      -22.393829       -2.167211
 C          -7.366634      -20.056511       -1.576136
 C          -7.057922      -22.153679       -3.622813
 C          -7.895221      -19.885935       -2.980100
 C          -7.126864      -20.667624       -4.015567
 H          -6.541665      -23.419821       -1.877471
 H          -5.402267      -22.229294       -2.129975
 H          -8.076895      -19.588001       -0.938697
 H          -6.347985      -19.706610       -1.455254
 H          -8.102983      -22.477318       -3.700774
 H          -6.437994      -22.719612       -4.330563
 H          -7.733740      -18.810637       -3.180975
 H          -8.965528      -20.165865       -2.898526
 H          -7.578259      -20.620575       -5.031959
 H          -6.081625      -20.248676       -4.126740
