20
 generated by VMD
 C         -11.883019      -41.813232       -7.120315
 N         -11.414035      -40.843784       -6.892303
 H         -14.239841      -41.044697       -8.245281
 H         -15.203366      -40.171345       -9.510870
 C         -14.939335      -41.175217       -9.042137
 C         -16.218119      -41.699528       -8.368271
 C         -14.351353      -42.068859      -10.087977
 C         -17.237419      -42.366493       -9.309621
 C         -15.371148      -42.677654      -11.006728
 C         -16.568106      -43.243732      -10.295096
 H         -16.785669      -40.941090       -7.802848
 H         -15.977706      -42.490974       -7.574589
 H         -13.534986      -41.513634      -10.542625
 H         -13.781513      -42.947830       -9.564089
 H         -17.958586      -41.665047       -9.786419
 H         -17.975494      -42.910580       -8.666588
 H         -14.870020      -43.542122      -11.559055
 H         -15.646996      -41.921734      -11.665139
 H         -17.301493      -43.558392      -11.014382
 H         -16.143543      -44.072350       -9.712433
