20
 generated by VMD
 C         -28.859701      -81.427277      -27.668831
 N         -29.715654      -80.677002      -27.473042
 H         -29.269753      -82.245148      -24.077866
 H         -28.143702      -82.134125      -27.775087
 C         -29.619789      -83.243904      -23.905598
 C         -29.818066      -83.863594      -22.548803
 C         -30.169552      -84.043602      -25.086199
 C         -31.412779      -84.023079      -22.357117
 C         -31.684164      -84.277779      -24.879972
 C         -31.943789      -84.827576      -23.460594
 H         -29.356886      -83.146126      -21.787170
 H         -29.194944      -84.732544      -22.539528
 H         -30.089327      -83.370758      -25.983557
 H         -29.590828      -84.972267      -25.208097
 H         -31.861223      -82.981438      -22.387829
 H         -31.624329      -84.303108      -21.339832
 H         -32.177242      -84.935913      -25.553213
 H         -32.224270      -83.325447      -24.884666
 H         -33.073330      -84.614929      -23.327932
 H         -31.728569      -85.891151      -23.446020
