20
 generated by VMD
 C         -41.032505     -103.753738      -35.842735
 N         -41.620747     -104.751930      -35.792355
 H         -38.912052     -103.990753      -33.302864
 H         -40.186905     -103.062157      -35.800636
 C         -38.433567     -104.848015      -32.946083
 C         -37.030983     -105.018906      -32.542683
 C         -39.173420     -106.114777      -32.996853
 C         -36.872047     -105.956978      -31.398798
 C         -39.186741     -107.036316      -31.731579
 C         -37.673557     -107.297348      -31.511150
 H         -36.563519     -104.015717      -32.160069
 H         -36.410961     -105.296005      -33.432816
 H         -40.181114     -105.947678      -33.230583
 H         -38.737644     -106.687035      -33.861847
 H         -37.156036     -105.365234      -30.552269
 H         -35.819828     -106.206856      -31.353279
 H         -39.927151     -107.812538      -31.973255
 H         -39.477699     -106.353546      -30.950037
 H         -37.551113     -107.772804      -30.497040
 H         -37.247219     -107.889793      -32.284859
