20
 generated by VMD
 C          -5.476133      -21.248713        1.607703
 N          -5.564607      -20.960718        2.689074
 H          -5.046491      -18.674646       -0.816011
 H          -5.609359      -20.358137       -0.062215
 C          -5.800013      -19.456383       -0.975859
 C          -5.553621      -20.055605       -2.346278
 C          -7.142770      -18.746340       -0.999303
 C          -6.573197      -21.082260       -2.645031
 C          -8.255992      -19.739092       -1.120493
 C          -8.039179      -20.579466       -2.419156
 H          -4.527038      -20.444401       -2.373179
 H          -5.595205      -19.253666       -3.109992
 H          -7.245558      -18.177824       -0.054507
 H          -7.154185      -18.208107       -1.899267
 H          -6.550300      -21.939074       -1.954028
 H          -6.386632      -21.495983       -3.692730
 H          -9.244235      -19.216473       -1.196369
 H          -8.236283      -20.379707       -0.246486
 H          -8.662072      -21.454840       -2.416218
 H          -8.370399      -19.948538       -3.235733
