20
 generated by VMD
 C         -57.894463     -167.863144      -55.255352
 N         -56.825882     -168.259048      -54.930470
 H         -60.970001     -166.330902      -55.796978
 H         -58.923073     -167.472046      -55.382977
 C         -62.018600     -166.418091      -55.971836
 C         -62.436878     -167.278412      -57.104855
 C         -62.979187     -165.299789      -55.560123
 C         -64.025322     -167.403824      -57.353905
 C         -64.437660     -165.509933      -55.797722
 C         -64.710854     -166.044998      -57.235916
 H         -62.088173     -168.403336      -57.105480
 H         -61.986141     -166.987213      -57.947323
 H         -62.745060     -164.998077      -54.448215
 H         -62.603619     -164.490723      -56.181805
 H         -64.462791     -168.122849      -56.601250
 H         -64.312157     -167.793533      -58.357208
 H         -65.002304     -164.572906      -55.486843
 H         -64.887222     -166.234497      -55.051094
 H         -65.778305     -166.058273      -57.237373
 H         -64.351601     -165.347626      -57.981606
