20
 generated by VMD
 C         -38.523003     -112.600853      -35.807129
 N         -38.072784     -112.020058      -36.698784
 H         -40.831322     -114.570564      -35.196117
 H         -38.780350     -113.225861      -34.966576
 C         -41.842918     -114.296486      -35.497944
 C         -41.917213     -114.477425      -36.921783
 C         -42.755489     -113.440872      -34.714844
 C         -43.339054     -114.678650      -37.359726
 C         -44.105862     -113.880501      -35.196758
 C         -44.282463     -113.713371      -36.642117
 H         -41.377983     -115.357346      -37.327293
 H         -41.646935     -113.585098      -37.544685
 H         -42.626640     -113.580086      -33.631866
 H         -42.515068     -112.445641      -35.001209
 H         -43.538940     -115.687286      -36.986324
 H         -43.483875     -114.704506      -38.489532
 H         -44.716549     -113.196350      -34.542625
 H         -44.436539     -114.882935      -34.794613
 H         -45.342300     -113.968117      -36.941814
 H         -44.187023     -112.671715      -37.052929
