20
 generated by VMD
 C          -1.109500       -9.980981        1.190762
 N          -1.856399       -9.782743        0.364288
 H          -3.166738      -12.225715        1.215570
 H          -3.946547      -12.082921        2.816558
 C          -3.848024      -12.754873        1.941482
 C          -3.080226      -14.013858        2.379255
 C          -5.167131      -13.075471        1.233119
 C          -3.976973      -14.826110        3.327934
 C          -5.984350      -13.993148        2.052999
 C          -5.323792      -15.206494        2.624091
 H          -2.193184      -13.735260        3.009079
 H          -2.692090      -14.620331        1.455994
 H          -5.658437      -12.156407        1.212906
 H          -5.046945      -13.284001        0.208375
 H          -4.268082      -14.240810        4.225950
 H          -3.617759      -15.782488        3.617124
 H          -6.830914      -14.276738        1.418941
 H          -6.391016      -13.384899        2.908335
 H          -5.986243      -15.772634        3.275419
 H          -5.051786      -15.808729        1.802912
