20
 generated by VMD
 C         -48.394695     -136.008957      -46.186459
 N         -47.255959     -136.158264      -45.823906
 H         -51.643372     -135.113312      -45.860027
 H         -49.521774     -135.870728      -46.165241
 C         -51.653709     -136.085571      -45.361126
 C         -52.250862     -137.351288      -45.954170
 C         -51.414471     -136.027756      -43.866432
 C         -51.825386     -138.596115      -45.273827
 C         -50.843086     -137.280807      -43.325489
 C         -51.876022     -138.407196      -43.778542
 H         -52.179909     -137.560623      -47.039764
 H         -53.302040     -137.145645      -45.760128
 H         -50.738731     -135.240585      -43.765160
 H         -52.329868     -135.668945      -43.410034
 H         -50.775215     -138.894272      -45.391949
 H         -52.450993     -139.388489      -45.618477
 H         -50.818142     -137.348557      -42.206635
 H         -49.838818     -137.436340      -43.719433
 H         -51.681217     -139.423157      -43.285030
 H         -52.926376     -137.906830      -43.562313
