20
 generated by VMD
 C         -57.917408     -167.821152      -55.231194
 N         -56.866859     -168.228287      -54.956863
 H         -60.956825     -166.264755      -55.675331
 H         -58.919205     -167.507416      -55.573311
 C         -61.987774     -166.401733      -55.922951
 C         -62.498188     -167.259445      -57.149479
 C         -62.921669     -165.280548      -55.632652
 C         -63.965141     -167.378189      -57.350769
 C         -64.435951     -165.470779      -55.788876
 C         -64.687958     -166.069214      -57.070568
 H         -62.064289     -168.359726      -56.934879
 H         -62.039555     -166.835907      -58.001450
 H         -62.841228     -165.016418      -54.525227
 H         -62.683483     -164.420441      -56.192585
 H         -64.342201     -168.149017      -56.679398
 H         -64.062859     -167.739456      -58.388241
 H         -65.100319     -164.454391      -55.776299
 H         -64.757683     -166.203949      -54.962345
 H         -65.678833     -166.257065      -57.368374
 H         -64.316681     -165.450714      -57.885273
