20
 generated by VMD
 C         -79.778893     -206.878937      -75.690765
 N         -80.071358     -207.333374      -74.638550
 H         -77.267738     -207.962677      -73.053062
 H         -79.536560     -206.612015      -76.769844
 C         -76.879211     -208.474915      -72.162872
 C         -75.706001     -208.000168      -71.385559
 C         -77.796097     -209.481613      -71.579659
 C         -76.026978     -207.848679      -69.870598
 C         -78.163513     -209.019714      -70.281021
 C         -76.903976     -208.906860      -69.343987
 H         -75.352219     -207.027786      -71.778511
 H         -74.943947     -208.808716      -71.415161
 H         -78.486305     -209.787201      -72.319054
 H         -77.086990     -210.312042      -71.459984
 H         -76.632469     -206.947495      -69.780769
 H         -75.148178     -207.870712      -69.239128
 H         -78.891937     -209.670090      -69.912399
 H         -78.617134     -207.993820      -70.316757
 H         -77.137680     -208.578903      -68.297050
 H         -76.564568     -209.952881      -69.283699
