20
 generated by VMD
 C         -29.169626      -81.233414      -27.544556
 N         -29.919584      -80.344597      -27.598673
 H         -28.398033      -82.469261      -23.986578
 H         -28.492994      -82.086197      -27.145208
 C         -29.245392      -83.152214      -23.817228
 C         -29.707684      -83.468620      -22.373373
 C         -29.963179      -83.838379      -24.995165
 C         -31.254839      -83.812187      -22.197130
 C         -31.458086      -83.936104      -24.772686
 C         -31.790554      -84.522903      -23.378450
 H         -29.363823      -82.604919      -21.724396
 H         -29.113213      -84.399666      -22.145859
 H         -29.709339      -83.420280      -25.969349
 H         -29.668112      -84.865952      -25.042334
 H         -31.718809      -82.878922      -22.066053
 H         -31.220037      -84.587074      -21.309908
 H         -32.019188      -84.601387      -25.528116
 H         -31.998129      -82.996674      -24.793968
 H         -32.864571      -84.444397      -23.244764
 H         -31.643250      -85.610428      -23.254728
