20
 generated by VMD
 C         -68.297600     -179.696350      -58.598885
 N         -67.680420     -179.496826      -57.641991
 H         -66.373291     -176.335724      -59.264137
 H         -68.942314     -179.899841      -59.439285
 C         -65.582031     -175.796631      -59.712357
 C         -66.058739     -174.655533      -60.670620
 C         -64.103836     -176.106003      -59.558022
 C         -65.132767     -173.515106      -60.592529
 C         -63.245365     -174.810715      -59.550766
 C         -63.701363     -173.936996      -60.684673
 H         -66.995193     -174.229721      -60.509151
 H         -66.019226     -175.190765      -61.654152
 H         -63.858963     -176.693832      -58.658642
 H         -63.684765     -176.732376      -60.486450
 H         -65.379944     -173.006302      -59.729042
 H         -65.348755     -172.849442      -61.368458
 H         -62.175255     -175.150146      -59.697239
 H         -63.343872     -174.336578      -58.609829
 H         -63.060062     -173.065643      -60.845509
 H         -63.404594     -174.576614      -61.599232
