20
 generated by VMD
 C         -20.363146      -57.313770      -16.780249
 N         -19.284801      -56.825268      -16.988400
 H         -22.450575      -59.351681      -17.393181
 H         -21.291557      -57.683605      -16.795074
 C         -22.388186      -60.315029      -16.750591
 C         -23.621328      -60.940052      -16.090446
 C         -21.158630      -61.020046      -16.555813
 C         -23.442923      -61.338963      -14.629037
 C         -21.263475      -62.260506      -15.587042
 C         -22.123018      -62.060677      -14.364743
 H         -23.854733      -61.867229      -16.672127
 H         -24.490543      -60.321907      -16.278812
 H         -20.683344      -61.194313      -17.544117
 H         -20.563734      -60.269199      -16.020864
 H         -24.235756      -62.048187      -14.328691
 H         -23.457729      -60.416077      -14.065393
 H         -20.274508      -62.663628      -15.232915
 H         -21.550373      -63.158672      -16.197212
 H         -22.256746      -63.000362      -13.770469
 H         -21.524805      -61.274166      -13.940130
