20
 generated by VMD
 C         -61.291092     -156.103760      -54.913956
 N         -60.473854     -155.916687      -55.665604
 H         -59.528271     -156.086426      -51.676388
 H         -62.121937     -156.443161      -54.291656
 C         -58.471764     -156.105438      -51.379459
 C         -57.768570     -154.910553      -50.727272
 C         -57.751751     -157.257050      -52.038860
 C         -56.305279     -155.396957      -50.269672
 C         -56.411831     -157.668304      -51.406097
 C         -55.589050     -156.384766      -51.264027
 H         -58.314533     -154.402252      -49.910633
 H         -57.731968     -154.190460      -51.636082
 H         -58.382290     -158.039078      -51.957394
 H         -57.613182     -157.006256      -53.091919
 H         -56.555473     -156.099213      -49.429623
 H         -55.722713     -154.534592      -50.105637
 H         -55.952953     -158.391678      -52.071026
 H         -56.724705     -158.207672      -50.436207
 H         -54.610878     -156.621155      -50.788754
 H         -55.349522     -155.862869      -52.171093
