20
 generated by VMD
 C         -59.721943     -157.440048      -56.662697
 N         -60.753571     -157.139816      -57.101631
 H         -59.763863     -157.121628      -53.072159
 H         -58.798508     -157.617828      -56.155670
 C         -59.121193     -157.863510      -52.606926
 C         -57.956303     -157.330963      -51.928482
 C         -59.446129     -159.387894      -52.579296
 C         -57.418293     -158.233475      -50.851067
 C         -58.802113     -160.162720      -51.502132
 C         -57.416264     -159.616714      -51.189514
 H         -58.308926     -156.350677      -51.364777
 H         -57.093937     -157.075424      -52.595856
 H         -60.502506     -159.342010      -52.719528
 H         -59.000351     -159.850342      -53.525726
 H         -58.122543     -158.211136      -49.967560
 H         -56.376888     -157.970932      -50.463840
 H         -58.868805     -161.287918      -51.631050
 H         -59.425976     -159.822357      -50.612530
 H         -57.139061     -160.176697      -50.318493
 H         -56.680698     -159.915375      -52.047314
