20
 generated by VMD
 C         -60.742329     -155.498962      -54.702721
 N         -61.094288     -156.459320      -54.243393
 H         -59.171230     -155.114868      -51.896530
 H         -60.390392     -154.594055      -55.129593
 C         -58.153862     -155.294189      -51.571335
 C         -57.564331     -154.530457      -50.381802
 C         -57.239853     -156.046524      -52.543720
 C         -56.279572     -155.238068      -49.745884
 C         -56.124023     -156.658844      -51.842041
 C         -55.289021     -155.777115      -50.964226
 H         -58.321709     -154.435898      -49.523476
 H         -57.391010     -153.538559      -50.756073
 H         -57.675526     -156.778015      -53.277927
 H         -57.032658     -155.217590      -53.149738
 H         -56.666245     -156.150955      -49.294704
 H         -55.902271     -154.407623      -49.040417
 H         -55.398075     -157.152679      -52.647057
 H         -56.559048     -157.436646      -51.206696
 H         -54.495201     -156.352890      -50.507874
 H         -54.771408     -154.942566      -51.486488
