20
 generated by VMD
 C         -60.632660     -155.967438      -54.237076
 N         -60.929214     -156.301102      -55.355736
 H         -59.378574     -155.871536      -51.058704
 H         -60.215637     -155.640549      -53.251740
 C         -58.389412     -155.546570      -51.406162
 C         -57.595715     -154.627869      -50.546467
 C         -57.530724     -156.377258      -52.431412
 C         -56.313370     -155.284454      -50.039856
 C         -56.386982     -157.175934      -51.765675
 C         -55.498772     -156.171722      -51.069695
 H         -58.301235     -154.324219      -49.691967
 H         -57.272621     -153.815002      -51.144756
 H         -58.327065     -157.029999      -52.862103
 H         -57.078865     -155.744629      -53.148621
 H         -56.752998     -155.878372      -49.303020
 H         -55.612606     -154.736343      -49.366405
 H         -55.717014     -157.715378      -52.516411
 H         -56.786560     -157.986328      -51.259911
 H         -54.681133     -156.690643      -50.571968
 H         -55.030445     -155.454468      -51.779171
