20
 generated by VMD
 C         -51.548141     -145.875717      -43.935661
 N         -51.462608     -146.422455      -44.913673
 H         -53.573711     -145.279999      -46.870392
 H         -51.811203     -145.400925      -43.039314
 C         -53.919468     -144.572769      -47.629200
 C         -52.807392     -144.493439      -48.743767
 C         -54.790417     -143.467926      -47.368912
 C         -53.446663     -143.971039      -50.101433
 C         -55.435543     -143.055191      -48.775295
 C         -54.295715     -142.700089      -49.820560
 H         -52.362732     -145.495193      -48.776146
 H         -51.929050     -143.770615      -48.373528
 H         -55.589622     -143.831085      -46.714420
 H         -54.346664     -142.610168      -47.012390
 H         -54.038162     -144.732742      -50.507767
 H         -52.681572     -143.810028      -50.790062
 H         -56.092388     -142.290512      -48.482353
 H         -55.979328     -143.918625      -49.224762
 H         -54.847286     -142.351990      -50.746254
 H         -53.642746     -141.835373      -49.434074
