20
 generated by VMD
 C         -19.913496      -51.780678      -10.128078
 N         -20.886099      -51.209747       -9.672306
 H         -18.026695      -49.226234      -10.422739
 H         -19.355045      -52.209728      -10.730022
 C         -17.276674      -49.103687      -11.236406
 C         -16.377295      -50.196606      -11.647820
 C         -17.395569      -47.909958      -12.168974
 C         -16.684166      -50.573200      -13.091396
 C         -17.242159      -48.235310      -13.676036
 C         -16.404392      -49.448147      -14.099184
 H         -16.470325      -51.108749      -10.957524
 H         -15.338456      -49.895210      -11.471662
 H         -18.352402      -47.440948      -12.024063
 H         -16.562695      -47.279541      -11.826437
 H         -17.770731      -50.956482      -13.073967
 H         -16.099552      -51.457569      -13.437403
 H         -16.950657      -47.304344      -14.217199
 H         -18.269529      -48.441864      -14.133838
 H         -16.549314      -49.833832      -15.134494
 H         -15.295855      -49.203571      -13.941688
