20
 generated by VMD
 C         -52.845253     -146.857376      -45.327946
 N         -52.492096     -147.305176      -44.291767
 H         -54.509155     -146.921677      -47.773438
 H         -53.149410     -146.291702      -46.246464
 C         -54.439301     -146.017868      -48.347324
 C         -53.252754     -145.859894      -49.207619
 C         -55.176346     -144.651077      -47.957584
 C         -53.317215     -144.789566      -50.312592
 C         -55.349674     -143.648636      -49.078053
 C         -53.906895     -143.453674      -49.747276
 H         -52.837315     -146.800095      -49.589111
 H         -52.473469     -145.400513      -48.509640
 H         -56.149181     -144.731628      -47.465736
 H         -54.550148     -144.091324      -47.050266
 H         -54.087940     -145.229965      -50.952019
 H         -52.390369     -144.528824      -50.819489
 H         -55.678932     -142.711227      -48.757454
 H         -56.133511     -144.056702      -49.863094
 H         -54.011795     -142.756027      -50.608578
 H         -53.257080     -142.887955      -48.998230
