20
 generated by VMD
 C         -19.851887      -50.483566      -10.234615
 N         -20.267649      -51.249832       -9.422846
 H         -17.222862      -48.869141      -10.008822
 H         -19.669744      -49.952591      -11.185222
 C         -17.218237      -49.103256      -11.124832
 C         -16.045216      -49.849529      -11.612601
 C         -17.632553      -47.918777      -11.947449
 C         -16.230801      -50.328659      -13.061389
 C         -17.607988      -48.281422      -13.450109
 C         -16.522947      -49.173973      -14.053699
 H         -15.872227      -50.703747      -11.000451
 H         -15.171654      -49.212292      -11.458512
 H         -18.580153      -47.447922      -11.699636
 H         -16.900705      -47.125725      -11.809483
 H         -17.058422      -51.006577      -13.037890
 H         -15.402963      -50.901405      -13.438334
 H         -17.791935      -47.313148      -14.016756
 H         -18.481974      -48.887951      -13.588845
 H         -16.949112      -49.548756      -14.965718
 H         -15.642326      -48.631905      -14.263802
