20
 generated by VMD
 C         -39.833763     -105.400475      -37.187565
 N         -40.045898     -104.265221      -36.988201
 H         -39.544685     -108.248718      -35.413204
 H         -39.634842     -106.373154      -37.653954
 C         -39.746563     -108.531250      -34.390614
 C         -38.481113     -108.190887      -33.480602
 C         -40.358337     -109.791725      -33.815372
 C         -38.795540     -108.052879      -32.020828
 C         -40.846806     -109.471046      -32.349117
 C         -39.698524     -109.192146      -31.517330
 H         -37.885910     -107.251358      -33.862408
 H         -37.756992     -109.067497      -33.517582
 H         -41.133804     -110.062126      -34.575302
 H         -39.641685     -110.619995      -33.852623
 H         -39.327885     -107.085869      -31.873938
 H         -37.939346     -108.060577      -31.318832
 H         -41.253265     -110.313850      -31.828178
 H         -41.651665     -108.701958      -32.225910
 H         -39.946789     -108.927979      -30.449741
 H         -39.026943     -110.161591      -31.393724
