20
 generated by VMD
 C         -27.931015      -82.640503      -27.203838
 N         -27.197895      -83.371872      -26.711025
 H         -31.374220      -84.108192      -26.396959
 H         -28.666023      -81.882843      -27.635633
 C         -31.736811      -84.969833      -25.770195
 C         -31.395720      -84.843491      -24.314880
 C         -32.361835      -86.244896      -26.383591
 C         -32.438889      -85.514000      -23.408220
 C         -33.166279      -87.050568      -25.355177
 C         -32.681889      -86.945999      -23.973526
 H         -31.175062      -83.841667      -24.057968
 H         -30.422310      -85.310295      -24.103718
 H         -32.954800      -85.958389      -27.276234
 H         -31.603466      -86.953979      -26.676378
 H         -33.446697      -85.048553      -23.468840
 H         -32.100639      -85.559097      -22.324387
 H         -33.238068      -88.175468      -25.645563
 H         -34.179386      -86.636894      -25.416395
 H         -33.327232      -87.243370      -23.217237
 H         -31.701191      -87.517479      -23.762028
