20
 generated by VMD
 C         -56.282795     -150.038651      -46.729919
 N         -56.976513     -150.479309      -45.952370
 H         -53.497925     -147.806076      -47.633492
 H         -55.560520     -149.782639      -47.467308
 C         -53.797256     -147.474136      -48.604233
 C         -52.962551     -147.878983      -49.805557
 C         -54.456341     -146.191345      -48.633217
 C         -53.912739     -147.713120      -51.016628
 C         -55.360394     -146.099991      -49.847870
 C         -54.577873     -146.288376      -51.069908
 H         -52.839008     -149.019150      -49.619213
 H         -52.102486     -147.290329      -49.798164
 H         -55.183796     -146.214447      -47.804745
 H         -53.803909     -145.399460      -48.737190
 H         -54.683228     -148.545456      -51.071941
 H         -53.276546     -147.746155      -51.958729
 H         -55.910801     -145.153687      -49.952000
 H         -56.168777     -146.910629      -49.729706
 H         -55.235058     -146.303223      -51.960102
 H         -53.811451     -145.533981      -51.121380
