20
 generated by VMD
 C          -1.572995       -9.399570        1.084967
 N          -1.784214       -9.797919        0.074627
 H          -2.867417      -11.971254        1.766529
 H          -3.767552      -12.174520        3.265755
 C          -3.580773      -12.598788        2.264930
 C          -2.983981      -13.990092        2.506064
 C          -4.884440      -12.711856        1.573564
 C          -3.940183      -14.975923        3.264795
 C          -5.892197      -13.627191        2.299528
 C          -5.254817      -14.992689        2.569199
 H          -2.025856      -13.959086        3.107206
 H          -2.816814      -14.513454        1.578483
 H          -5.373307      -11.685453        1.476088
 H          -4.762176      -13.136464        0.502745
 H          -3.922672      -14.777363        4.342965
 H          -3.410013      -15.930413        3.098243
 H          -6.719566      -13.796740        1.608948
 H          -6.252980      -13.193803        3.205598
 H          -5.926724      -15.584019        3.243217
 H          -5.219909      -15.592841        1.620568
