20
 generated by VMD
 C         -49.819885     -141.757431      -45.253525
 N         -49.357952     -142.794113      -45.253578
 H         -51.836445     -139.072357      -45.885529
 H         -50.254555     -140.792664      -45.179874
 C         -52.271503     -139.879440      -46.409924
 C         -52.434521     -140.101349      -47.860493
 C         -53.331226     -140.434402      -45.514668
 C         -53.011093     -141.434235      -48.358524
 C         -53.884098     -141.808624      -45.987648
 C         -54.227180     -141.774078      -47.515755
 H         -51.391724     -139.957764      -48.222923
 H         -53.157009     -139.427902      -48.275185
 H         -52.865799     -140.415573      -44.491024
 H         -53.895134     -139.521408      -45.673389
 H         -52.257935     -142.186569      -48.187183
 H         -53.395370     -141.253265      -49.330910
 H         -54.770947     -142.200424      -45.412258
 H         -53.047623     -142.488632      -45.780975
 H         -54.514893     -142.750092      -47.828331
 H         -54.936859     -140.985794      -47.617390
