20
 generated by VMD
 C          -9.958716      -24.584057        0.287576
 N         -10.465763      -25.084906       -0.562931
 H          -6.284048      -24.706553       -0.911581
 H          -8.016667      -24.432081       -1.104098
 C          -7.077143      -24.467068       -1.596249
 C          -7.128725      -25.534254       -2.729957
 C          -6.925902      -23.049622       -2.148438
 C          -8.046380      -25.133993       -3.960927
 C          -7.788441      -22.684477       -3.312332
 C          -7.721590      -23.741646       -4.435956
 H          -7.421865      -26.429876       -2.310500
 H          -6.134339      -25.666582       -3.142508
 H          -7.128098      -22.369934       -1.325222
 H          -5.858006      -22.961887       -2.443932
 H          -9.076837      -25.146637       -3.590357
 H          -7.996680      -25.854618       -4.788568
 H          -7.533689      -21.692036       -3.701305
 H          -8.823921      -22.697926       -3.014075
 H          -8.433632      -23.444050       -5.247411
 H          -6.660387      -23.818600       -4.780985
