20
 generated by VMD
 C         -19.166878      -61.408611      -16.073961
 N         -19.978359      -60.801262      -16.682051
 H         -21.818645      -63.383522      -18.156328
 H         -18.379669      -61.988182      -15.717759
 C         -22.871798      -63.288971      -17.858980
 C         -24.089561      -63.485073      -18.740505
 C         -23.073767      -63.473061      -16.407587
 C         -24.777561      -64.797905      -18.387234
 C         -23.833967      -64.740974      -15.955202
 C         -25.097946      -64.782722      -16.865032
 H         -23.677498      -63.642178      -19.756920
 H         -24.760365      -62.643593      -18.698017
 H         -22.095814      -63.520050      -15.897511
 H         -23.594727      -62.586864      -16.178215
 H         -24.068304      -65.622459      -18.559261
 H         -25.550426      -65.093575      -19.053587
 H         -24.048243      -64.518745      -14.869417
 H         -23.150007      -65.617729      -16.073633
 H         -25.649538      -65.764679      -16.733488
 H         -25.890165      -64.100876      -16.698324
