20
 generated by VMD
 C         -78.985878     -206.788528      -75.359390
 N         -79.619392     -207.082504      -76.327148
 H         -78.296593     -209.605042      -73.212845
 H         -78.280853     -206.403259      -74.530273
 C         -77.866714     -209.791412      -72.237801
 C         -76.719704     -208.813583      -71.969841
 C         -78.274857     -210.859726      -71.228661
 C         -76.697609     -208.313034      -70.531906
 C         -78.300301     -210.158020      -69.829094
 C         -76.942741     -209.494583      -69.562515
 H         -76.817375     -207.965210      -72.656967
 H         -75.822540     -209.345230      -72.230820
 H         -79.114151     -211.546722      -71.236023
 H         -77.338043     -211.453247      -71.297585
 H         -77.416718     -207.457230      -70.482872
 H         -75.710144     -207.840927      -70.390251
 H         -78.420616     -210.949936      -69.104370
 H         -79.152359     -209.410309      -69.622292
 H         -76.932549     -209.066177      -68.529114
 H         -76.065704     -210.168976      -69.625542
