20
 generated by VMD
 C         -60.362255     -172.094986      -55.269203
 N         -59.903027     -173.111160      -54.843613
 H         -62.861012     -170.635895      -56.613602
 H         -60.777828     -171.222244      -55.734123
 C         -63.267689     -169.751114      -57.176453
 C         -62.745819     -168.312103      -57.376675
 C         -64.785477     -169.721268      -57.132397
 C         -63.264702     -167.819534      -58.767132
 C         -65.288422     -169.188995      -58.482029
 C         -64.731857     -167.891357      -59.019276
 H         -61.610073     -168.096939      -57.288479
 H         -63.244278     -167.624573      -56.658554
 H         -65.376358     -170.649948      -56.966431
 H         -65.185005     -168.980331      -56.430210
 H         -62.764614     -168.338791      -59.520290
 H         -62.932991     -166.774658      -58.883324
 H         -66.406883     -169.137131      -58.426991
 H         -65.170280     -170.044769      -59.178146
 H         -64.957520     -167.878616      -60.081482
 H         -65.385445     -167.164261      -58.465248
