20
 generated by VMD
 C         -22.786085      -52.400856      -12.045540
 N         -23.217329      -52.501007      -10.974802
 H         -20.069078      -52.876640      -13.854836
 H         -22.498344      -52.378372      -13.313474
 C         -18.952766      -52.893925      -13.853787
 C         -18.119789      -52.039314      -14.751356
 C         -18.271311      -53.910763      -13.043253
 C         -16.572283      -52.196079      -14.532415
 C         -17.028229      -53.336929      -12.312108
 C         -16.148897      -52.296059      -13.067970
 H         -18.355074      -50.936432      -14.791123
 H         -18.396715      -52.388294      -15.789463
 H         -18.977005      -54.287888      -12.307286
 H         -17.955709      -54.757290      -13.657247
 H         -16.085268      -51.351921      -14.995061
 H         -16.320356      -53.016850      -15.171451
 H         -16.491365      -54.207005      -11.781593
 H         -17.339220      -52.790874      -11.447786
 H         -16.252377      -51.275127      -12.598042
 H         -15.083614      -52.581406      -13.040868
