20
 generated by VMD
 C         -67.726204     -191.744476      -67.072800
 N         -66.787811     -192.360611      -66.835228
 H         -70.641777     -189.226028      -66.263367
 H         -68.433121     -190.979523      -67.198074
 C         -71.290367     -189.710938      -65.525520
 C         -71.728767     -191.139969      -65.750351
 C         -71.282097     -189.268097      -64.146446
 C         -73.192741     -191.279190      -65.282722
 C         -72.597870     -189.496384      -63.482754
 C         -73.349091     -190.869415      -63.827595
 H         -71.129662     -191.767380      -65.090729
 H         -71.641571     -191.408173      -66.784470
 H         -70.504341     -189.882858      -63.608700
 H         -71.113914     -188.183853      -64.242332
 H         -73.570206     -192.317154      -65.533081
 H         -73.863701     -190.677719      -65.917679
 H         -73.288200     -188.594955      -63.635777
 H         -72.381042     -189.304276      -62.407028
 H         -72.713852     -191.620956      -63.199749
 H         -74.530464     -190.809296      -63.621857
