20
 generated by VMD
 C         -22.841919      -52.409691      -12.051869
 N         -23.086561      -52.512527      -10.899886
 H         -20.010170      -52.935650      -14.212903
 H         -22.308216      -52.179623      -13.159514
 C         -18.946270      -52.775105      -13.847901
 C         -18.074720      -51.965397      -14.772902
 C         -18.223133      -53.770649      -12.979139
 C         -16.593395      -52.312294      -14.521780
 C         -17.036945      -53.220524      -12.264995
 C         -16.203634      -52.225391      -13.096694
 H         -18.241232      -50.875244      -14.494941
 H         -18.332224      -52.025700      -15.877472
 H         -18.880703      -54.262779      -12.253788
 H         -17.868389      -54.564552      -13.655949
 H         -16.011204      -51.673733      -15.151051
 H         -16.460663      -53.275562      -14.972837
 H         -16.444916      -54.178360      -11.940478
 H         -17.219206      -52.781826      -11.304897
 H         -16.351131      -51.170597      -12.754574
 H         -15.145674      -52.488297      -12.977265
