20
 generated by VMD
 C         -72.685028     -198.720078      -65.614037
 N         -73.667778     -199.012924      -66.157440
 H         -70.944633     -196.054001      -67.498207
 H         -71.697540     -198.290054      -65.338860
 C         -71.998634     -196.157257      -67.776291
 C         -72.868164     -195.264053      -67.007637
 C         -72.454773     -196.851761      -68.971321
 C         -74.286377     -195.236618      -67.610001
 C         -73.932571     -197.325470      -68.988815
 C         -74.861122     -196.553696      -68.089493
 H         -72.527443     -194.251129      -67.121277
 H         -72.840157     -195.670380      -65.921249
 H         -72.348488     -196.091385      -69.764992
 H         -71.692047     -197.588028      -69.265602
 H         -74.212135     -194.519180      -68.434875
 H         -74.957161     -194.787689      -66.849106
 H         -73.856743     -198.352600      -68.699883
 H         -74.375923     -197.209839      -69.988190
 H         -75.751228     -196.507492      -68.596046
 H         -74.983620     -197.324417      -67.188095
