20
 generated by VMD
 C         -11.676924      -41.950245       -6.698397
 N         -11.220100      -40.969757       -6.902358
 H         -14.418622      -40.775711       -8.423123
 H         -15.592243      -40.309219       -9.764697
 C         -15.116182      -41.155983       -9.183544
 C         -16.311914      -41.789787       -8.508802
 C         -14.512803      -42.248863      -10.025759
 C         -17.304806      -42.411366       -9.496449
 C         -15.472357      -42.702728      -11.108385
 C         -16.597372      -43.410831      -10.393198
 H         -16.871191      -41.066689       -7.893792
 H         -16.014072      -42.620140       -7.781372
 H         -13.619800      -41.858994      -10.470722
 H         -14.081350      -43.011822       -9.314520
 H         -17.841421      -41.650135      -10.092340
 H         -18.195883      -42.847832       -8.990083
 H         -14.926786      -43.513470      -11.667444
 H         -15.813602      -41.913898      -11.736873
 H         -17.309381      -43.745476      -11.125233
 H         -16.145245      -44.230064       -9.810052
