20
 generated by VMD
 C         -79.380257     -205.482376      -70.877678
 N         -80.364624     -205.901886      -71.305977
 H         -77.106110     -203.280853      -70.804665
 H         -78.383682     -204.994263      -70.658470
 C         -76.127151     -203.278061      -70.343864
 C         -75.327080     -202.047119      -70.153030
 C         -75.803612     -204.597061      -69.812820
 C         -73.880051     -202.519913      -70.580513
 C         -74.442039     -204.533524      -69.023170
 C         -73.373901     -203.695908      -69.815468
 H         -75.323387     -201.676300      -69.079643
 H         -75.597191     -201.230576      -70.803795
 H         -76.687256     -205.056244      -69.373405
 H         -75.622253     -205.360031      -70.597260
 H         -73.232948     -201.653381      -70.448677
 H         -73.860733     -202.670059      -71.636444
 H         -74.079262     -205.510254      -69.042397
 H         -74.469818     -204.243332      -67.918251
 H         -72.612503     -203.438263      -69.224770
 H         -72.913383     -204.375305      -70.521370
