20
 generated by VMD
 C         -68.107315     -185.873962      -67.547668
 N         -68.606415     -186.937302      -67.592712
 H         -68.590462     -187.752121      -64.647034
 H         -67.641388     -184.863724      -67.545692
 C         -69.278214     -187.543640      -63.880093
 C         -68.821983     -187.219208      -62.507221
 C         -70.654793     -187.739868      -64.162453
 C         -69.727600     -187.430023      -61.320621
 C         -71.426735     -188.378189      -63.003582
 C         -71.212463     -187.459610      -61.722942
 H         -68.396187     -186.217819      -62.592499
 H         -67.857941     -187.657944      -62.300076
 H         -71.052879     -186.787827      -64.578339
 H         -70.740646     -188.432343      -65.107536
 H         -69.543961     -186.586090      -60.584789
 H         -69.526749     -188.406448      -60.811749
 H         -71.034187     -189.337982      -62.810108
 H         -72.442711     -188.587357      -63.205425
 H         -71.758110     -186.521896      -62.018818
 H         -71.683830     -187.782288      -60.780090
