20
 generated by VMD
 C         -66.530289     -189.698715      -66.740959
 N         -66.431938     -189.133804      -67.740036
 H         -69.546127     -190.094925      -64.609055
 H         -66.587914     -190.019272      -65.741402
 C         -70.535942     -189.672028      -64.302216
 C         -71.604790     -190.663910      -64.021469
 C         -70.437004     -188.324905      -63.710876
 C         -73.001091     -189.869019      -63.922417
 C         -71.802902     -187.572754      -63.744602
 C         -72.925049     -188.543930      -63.134670
 H         -71.387840     -191.121536      -63.071304
 H         -71.652908     -191.256714      -64.879837
 H         -70.205025     -188.378906      -62.669361
 H         -69.666092     -187.738449      -64.120239
 H         -73.716843     -190.537842      -63.487221
 H         -73.444160     -189.690369      -64.951294
 H         -72.045570     -187.162369      -64.814995
 H         -71.836540     -186.672867      -63.119495
 H         -72.461594     -188.841080      -62.156994
 H         -73.832825     -188.063538      -63.063816
