20
 generated by VMD
 C         -23.647617      -69.333954      -16.738777
 N         -24.053936      -69.910568      -15.796318
 H         -23.884602      -66.900795      -18.704176
 H         -23.511106      -68.880936      -17.646336
 C         -24.401106      -67.460953      -19.418493
 C         -23.799448      -68.133202      -20.661592
 C         -26.024609      -67.376884      -19.286343
 C         -24.507648      -69.561829      -20.799013
 C         -26.665903      -68.716209      -19.488201
 C         -26.034029      -69.338821      -20.727962
 H         -22.703045      -68.264343      -20.448277
 H         -23.876143      -67.423874      -21.546120
 H         -26.069956      -66.929817      -18.284386
 H         -26.415741      -66.558395      -20.107742
 H         -24.211235      -70.171150      -19.960064
 H         -24.161701      -70.043869      -21.684486
 H         -27.706024      -68.645592      -19.620487
 H         -26.553991      -69.370987      -18.679232
 H         -26.623980      -70.273491      -20.763451
 H         -26.373264      -68.687637      -21.534548
