20
 generated by VMD
 C         -77.385422     -202.844696      -68.905655
 N         -77.511482     -203.806625      -68.204521
 H         -75.126511     -201.591095      -67.238144
 H         -77.104561     -201.878662      -69.249229
 C         -74.847862     -201.204239      -68.265106
 C         -75.222359     -199.773636      -68.546799
 C         -73.721123     -201.996811      -68.951958
 C         -74.421486     -199.208908      -69.702171
 C         -73.114540     -201.293015      -70.203720
 C         -74.048447     -200.198196      -70.726700
 H         -75.070236     -199.220703      -67.618172
 H         -76.280617     -199.698975      -68.725624
 H         -72.945816     -202.169693      -68.204803
 H         -74.125931     -203.011551      -69.206505
 H         -73.623611     -198.497772      -69.408310
 H         -75.038689     -198.525421      -70.283875
 H         -72.932533     -202.123306      -70.805153
 H         -72.146736     -200.947052      -70.065315
 H         -73.577866     -199.643372      -71.584808
 H         -75.033272     -200.512161      -71.190819
