20
 generated by VMD
 C         -78.046692     -204.171097      -69.804367
 N         -79.106178     -203.700775      -69.994934
 H         -75.539619     -202.332535      -67.560471
 H         -77.093346     -204.576767      -69.836784
 C         -75.393738     -202.477203      -68.566040
 C         -75.828705     -201.374451      -69.524513
 C         -74.311348     -203.375717      -69.087128
 C         -74.964767     -201.335068      -70.753433
 C         -73.087112     -202.529480      -69.374283
 C         -73.453629     -201.358017      -70.253281
 H         -75.615067     -200.439896      -68.944237
 H         -76.864487     -201.478394      -69.626282
 H         -74.174080     -204.202377      -68.372734
 H         -74.622597     -203.852921      -70.009224
 H         -75.143311     -200.469101      -71.431923
 H         -75.198082     -202.204773      -71.401070
 H         -72.421623     -203.238785      -69.876389
 H         -72.497688     -202.229691      -68.539513
 H         -73.412369     -200.484055      -69.570152
 H         -72.636223     -201.163010      -71.001137
