20
 generated by VMD
 C          -2.682146       -9.024369        0.184504
 N          -1.643380       -9.317482        0.050368
 H          -2.334375      -11.743281        2.620166
 H          -3.098939      -12.307886        4.177208
 C          -3.036279      -12.486100        3.089938
 C          -2.677249      -13.978867        2.640057
 C          -4.353247      -12.028735        2.466087
 C          -3.854831      -14.871224        3.059392
 C          -5.488585      -12.982408        2.708721
 C          -5.187103      -14.450265        2.397831
 H          -1.753354      -14.188318        3.129372
 H          -2.430470      -13.891762        1.560630
 H          -4.662282      -11.117397        3.050401
 H          -4.287413      -11.742950        1.340118
 H          -3.973390      -14.704093        4.176158
 H          -3.575975      -15.945694        2.936137
 H          -6.379667      -12.658121        2.242354
 H          -5.692789      -12.933472        3.764946
 H          -5.942861      -15.118101        2.795695
 H          -5.087610      -14.610950        1.319489
