20
 generated by VMD
 C         -12.361629      -32.053623       -8.743981
 N         -12.664618      -30.976524       -8.735865
 H         -10.466346      -34.670029       -7.449875
 H         -11.382641      -33.613903       -6.353137
 C         -11.084442      -34.653038       -6.522791
 C         -10.336654      -35.179241       -5.331770
 C         -12.361019      -35.612236       -6.791638
 C         -11.232463      -35.325592       -4.147283
 C         -13.294992      -35.645725       -5.496417
 C         -12.476032      -36.224377       -4.324068
 H          -9.610133      -34.401917       -5.140919
 H          -9.679060      -36.046074       -5.573787
 H         -12.937774      -35.083115       -7.562039
 H         -12.125749      -36.609394       -7.155623
 H         -11.523529      -34.321667       -3.842186
 H         -10.723696      -35.704910       -3.306943
 H         -14.197200      -36.127651       -5.613888
 H         -13.576113      -34.595921       -5.172346
 H         -13.089703      -36.232166       -3.390542
 H         -12.135434      -37.267609       -4.523027
