20
 generated by VMD
 C         -58.521435     -152.099075      -49.257980
 N         -59.657204     -152.182343      -49.594639
 H         -55.777218     -150.098648      -47.835377
 H         -57.487045     -152.158890      -49.037209
 C         -55.247219     -149.808624      -48.762726
 C         -54.478065     -150.901917      -49.473309
 C         -54.933792     -148.318283      -49.096024
 C         -54.171200     -150.503204      -50.956306
 C         -54.788689     -147.976501      -50.556278
 C         -53.758099     -148.996948      -51.156372
 H         -55.040020     -151.843063      -49.560287
 H         -53.500072     -150.952972      -48.788479
 H         -55.742588     -147.669235      -48.614841
 H         -54.070683     -148.007629      -48.505470
 H         -55.108242     -150.698853      -51.521774
 H         -53.369289     -151.073944      -51.427189
 H         -54.510750     -146.988342      -50.752518
 H         -55.870018     -147.804337      -51.042774
 H         -53.542507     -148.773010      -52.236767
 H         -52.817257     -148.867340      -50.723568
