20
 generated by VMD
 C         -21.200037      -52.017990      -10.401878
 N         -21.463589      -53.162312      -10.659448
 H         -19.844019      -50.275085      -12.767813
 H         -21.072905      -51.049088      -10.088853
 C         -18.781530      -50.437344      -13.061018
 C         -18.341061      -51.780712      -13.529586
 C         -17.733015      -49.773010      -12.191651
 C         -16.885963      -51.782009      -14.154675
 C         -16.296837      -49.705711      -12.797168
 C         -15.834754      -51.028465      -13.343718
 H         -19.065870      -52.145027      -14.261937
 H         -18.342999      -52.443890      -12.672265
 H         -18.146965      -48.790150      -11.958237
 H         -17.588844      -50.231846      -11.162235
 H         -16.929573      -51.380531      -15.183046
 H         -16.605440      -52.819141      -14.340609
 H         -15.570395      -49.417061      -12.072754
 H         -16.254789      -48.910625      -13.654697
 H         -14.983893      -50.828388      -13.971744
 H         -15.523958      -51.675117      -12.523120
