20
 generated by VMD
 C         -31.025326      -78.420486      -25.885418
 N         -31.348871      -77.540298      -25.283724
 H         -29.406139      -77.434158      -23.102732
 H         -30.726353      -79.048508      -26.801146
 C         -28.846706      -78.229599      -22.687805
 C         -27.391193      -78.321770      -22.928082
 C         -29.520641      -79.384453      -22.015146
 C         -26.547766      -79.516617      -22.386265
 C         -28.677879      -80.361160      -21.319036
 C         -27.383345      -80.721779      -22.037081
 H         -26.953625      -77.361069      -22.550398
 H         -27.332411      -78.441139      -24.014030
 H         -30.197170      -78.766495      -21.328976
 H         -30.066557      -79.869980      -22.779961
 H         -26.096491      -79.194382      -21.411678
 H         -25.676870      -79.757507      -22.977413
 H         -29.365656      -81.183128      -21.091135
 H         -28.552214      -79.905487      -20.282042
 H         -26.859348      -81.411041      -21.429821
 H         -27.539412      -81.206123      -22.945807
