20
 generated by VMD
 C         -77.273033     -203.528137      -67.164627
 N         -77.992363     -204.385223      -66.797440
 H         -75.782890     -200.936279      -68.632545
 H         -76.666199     -202.782333      -67.637886
 C         -74.850212     -200.350037      -68.817383
 C         -74.756409     -198.853073      -68.609177
 C         -73.732010     -201.079239      -69.589539
 C         -73.601875     -198.146042      -69.402924
 C         -72.797745     -200.204742      -70.399315
 C         -73.389305     -198.766678      -70.719498
 H         -74.622803     -198.626083      -67.554993
 H         -75.675072     -198.500122      -68.910858
 H         -73.389771     -201.820770      -68.837189
 H         -74.336632     -201.676727      -70.247398
 H         -72.607605     -198.115143      -68.944206
 H         -73.912773     -197.084518      -69.617874
 H         -72.410286     -200.586502      -71.320038
 H         -71.925667     -200.136871      -69.765572
 H         -72.710556     -198.158234      -71.398026
 H         -74.271736     -198.832443      -71.294350
