20
 generated by VMD
 C         -38.437355     -112.658867      -35.847805
 N         -37.867783     -112.095566      -36.707912
 H         -40.980999     -114.550728      -34.815548
 H         -38.714748     -113.422035      -35.088825
 C         -41.831345     -114.279236      -35.496586
 C         -41.987602     -114.571175      -36.951778
 C         -42.871315     -113.665176      -34.710091
 C         -43.371231     -114.704163      -37.399284
 C         -44.283699     -113.929031      -35.265488
 C         -44.396000     -113.792282      -36.747269
 H         -41.412884     -115.487785      -37.017471
 H         -41.393951     -113.711052      -37.367630
 H         -42.717514     -113.838463      -33.633633
 H         -42.854710     -112.568001      -34.808968
 H         -43.737583     -115.715065      -37.034946
 H         -43.435215     -114.688423      -38.514233
 H         -45.030914     -113.277786      -34.929649
 H         -44.663754     -114.883133      -35.013954
 H         -45.440731     -114.102135      -37.078796
 H         -44.171856     -112.785538      -36.868061
