20
 generated by VMD
 C         -47.416130     -139.081909      -45.668892
 N         -46.790741     -138.640076      -46.604557
 H         -50.824917     -138.947861      -44.578972
 H         -47.948441     -139.754593      -44.950294
 C         -51.739376     -138.900253      -45.143681
 C         -51.781097     -139.185638      -46.611973
 C         -52.984062     -138.408081      -44.376213
 C         -52.979511     -140.166779      -46.922203
 C         -54.118465     -139.477798      -44.674774
 C         -54.290958     -139.774338      -46.129807
 H         -50.802067     -139.619949      -47.061657
 H         -52.031231     -138.183319      -47.060486
 H         -52.763512     -138.311188      -43.337280
 H         -53.326237     -137.448776      -44.729233
 H         -52.470337     -141.050537      -46.434929
 H         -53.144375     -140.363007      -47.999226
 H         -55.122025     -139.099884      -44.288151
 H         -53.844219     -140.460876      -44.121548
 H         -55.103859     -140.498703      -46.254299
 H         -54.662933     -138.979355      -46.542747
