20
 generated by VMD
 C         -60.185371     -171.189301      -55.310505
 N         -59.352947     -171.912369      -55.047138
 H         -63.199383     -170.296539      -56.115360
 H         -60.962894     -170.469742      -55.437859
 C         -63.350986     -169.504318      -56.827450
 C         -62.372692     -168.504730      -57.540039
 C         -64.860435     -169.065033      -56.694290
 C         -62.981125     -167.880936      -58.754311
 C         -65.408722     -168.423294      -57.945915
 C         -64.422997     -167.517059      -58.514137
 H         -61.357185     -169.116150      -57.885750
 H         -62.071953     -167.822464      -56.825779
 H         -65.451012     -169.890320      -56.415615
 H         -64.847382     -168.563599      -55.779270
 H         -62.949188     -168.471649      -59.683235
 H         -62.393681     -166.920563      -59.062866
 H         -66.295723     -167.835556      -57.664669
 H         -65.844337     -169.106155      -58.668190
 H         -64.760384     -167.142380      -59.457111
 H         -64.403427     -166.579742      -57.867805
