20
 generated by VMD
 C         -40.312405     -100.197517      -30.078854
 N         -41.074657     -100.478493      -30.926872
 H         -36.931145     -102.178719      -30.708195
 H         -39.453892     -100.184166      -29.361330
 C         -36.514542     -101.172600      -30.917593
 C         -36.410316     -100.662743      -32.326328
 C         -35.432121     -100.951828      -29.947889
 C         -35.839287      -99.272240      -32.323112
 C         -34.656269      -99.600845      -30.098198
 C         -34.440250      -99.137222      -31.528761
 H         -37.423615     -100.693069      -32.806156
 H         -35.716087     -101.280022      -32.888512
 H         -35.967819     -101.158546      -28.984894
 H         -34.791119     -101.761345      -30.131582
 H         -36.570347      -98.677620      -31.764894
 H         -35.854176      -98.992737      -33.429253
 H         -33.692333      -99.666122      -29.482534
 H         -35.317112      -98.814140      -29.663145
 H         -34.133350      -98.140213      -31.437332
 H         -33.713398      -99.619034      -32.117477
