20
 generated by VMD
 C         -77.394043     -202.875000      -68.919029
 N         -77.511780     -203.776016      -68.243179
 H         -75.234329     -201.647217      -67.321274
 H         -77.137184     -201.859955      -69.292961
 C         -74.817657     -201.201202      -68.215591
 C         -75.210823     -199.814209      -68.564285
 C         -73.723900     -201.969116      -68.952774
 C         -74.437622     -199.251816      -69.691345
 C         -73.156776     -201.322556      -70.188896
 C         -74.045830     -200.207352      -70.748749
 H         -75.096115     -199.205536      -67.664871
 H         -76.332085     -199.752975      -68.654343
 H         -72.904610     -202.055588      -68.181305
 H         -74.186928     -202.904709      -69.213852
 H         -73.520996     -198.618958      -69.488632
 H         -75.112625     -198.605072      -70.305634
 H         -72.873314     -202.172684      -70.918694
 H         -72.066689     -201.001404      -69.934975
 H         -73.638046     -199.631165      -71.543808
 H         -75.015190     -200.446030      -71.196808
