20
 generated by VMD
 C          -2.425011       -8.680602       -0.663929
 N          -1.550233       -8.362570       -0.105178
 H          -3.003582       -9.686649        2.886459
 H          -1.901473      -10.953686        3.458926
 C          -2.926082      -10.667183        3.228771
 C          -3.420721      -11.582257        2.111773
 C          -3.670090      -10.839535        4.522512
 C          -3.353334      -13.039727        2.561270
 C          -3.606350      -12.318236        4.877584
 C          -4.075192      -13.301769        3.815177
 H          -2.774895      -11.385884        1.271519
 H          -4.450200      -11.325794        1.854091
 H          -3.449791      -10.227786        5.407158
 H          -4.701840      -10.598372        4.352545
 H          -2.285563      -13.235826        2.628450
 H          -3.704763      -13.632560        1.743986
 H          -4.252361      -12.488845        5.786361
 H          -2.595424      -12.704953        5.188073
 H          -3.769133      -14.315529        4.168268
 H          -5.172483      -13.374967        3.693086
