20
 generated by VMD
 C         -51.952072     -146.162781      -43.983406
 N         -51.633656     -146.444809      -45.042767
 H         -53.732063     -145.476395      -46.847534
 H         -52.347862     -145.999191      -42.980968
 C         -53.837112     -144.885071      -47.730347
 C         -52.820862     -144.753693      -48.864273
 C         -54.882767     -143.715363      -47.501099
 C         -53.514034     -144.160950      -50.132915
 C         -55.402145     -143.156799      -48.864079
 C         -54.201366     -142.841431      -49.770359
 H         -52.284771     -145.685974      -49.002182
 H         -52.137829     -144.078094      -48.362556
 H         -55.748898     -144.058289      -46.938171
 H         -54.484413     -142.879684      -46.839966
 H         -54.188988     -144.867340      -50.565613
 H         -52.837097     -144.116425      -51.001427
 H         -55.939594     -142.191772      -48.790485
 H         -56.120346     -143.803635      -49.200657
 H         -54.666252     -142.387085      -50.706257
 H         -53.598621     -142.133286      -49.256851
