20
 generated by VMD
 C         -50.445301     -131.811279      -47.058033
 N         -49.991924     -132.241486      -48.035492
 H         -48.789551     -131.364426      -43.630848
 H         -50.821434     -131.750031      -46.024685
 C         -48.767052     -132.307953      -43.021088
 C         -49.492523     -133.514603      -43.503174
 C         -48.538631     -132.098602      -41.467880
 C         -49.089428     -134.755417      -42.777943
 C         -48.323669     -133.424240      -40.791962
 C         -49.256626     -134.458435      -41.245453
 H         -49.332302     -133.458466      -44.612755
 H         -50.502693     -133.277954      -43.330013
 H         -47.684063     -131.316193      -41.301689
 H         -49.471077     -131.667358      -41.126041
 H         -48.010124     -134.922180      -42.961739
 H         -49.681381     -135.526733      -43.268288
 H         -48.402573     -133.364120      -39.726021
 H         -47.317417     -133.688370      -41.222427
 H         -49.100872     -135.381180      -40.697388
 H         -50.326359     -134.353165      -41.013088
