20
 generated by VMD
 C         -32.089455      -92.986954      -25.940311
 N         -32.451027      -94.020905      -25.545835
 H         -33.874031      -94.937973      -28.862682
 H         -31.953148      -91.951866      -26.358400
 C         -34.079369      -93.899757      -28.828821
 C         -35.333805      -93.343315      -28.194700
 C         -33.626522      -93.097221      -29.952511
 C         -35.418213      -91.749084      -27.956161
 C         -33.598366      -91.573647      -29.675087
 C         -34.953503      -91.062325      -29.270924
 H         -35.391304      -93.683182      -27.189423
 H         -36.183643      -93.718681      -28.817978
 H         -32.700005      -93.506126      -30.389851
 H         -34.333393      -93.111320      -30.780975
 H         -34.916550      -91.525795      -27.038858
 H         -36.464100      -91.632278      -27.732368
 H         -33.355133      -91.160713      -30.618380
 H         -32.931053      -91.158997      -28.882643
 H         -35.047054      -89.994331      -29.065130
 H         -35.738892      -91.074867      -30.093575
