20
 generated by VMD
 C         -49.704605     -131.886383      -46.561878
 N         -50.069954     -132.561035      -47.374191
 H         -48.095783     -132.644531      -44.436985
 H         -49.222687     -131.062866      -46.085926
 C         -48.720711     -133.147614      -43.650425
 C         -49.440205     -134.373489      -43.996456
 C         -49.045002     -132.595825      -42.266830
 C         -49.502586     -135.458328      -42.818935
 C         -48.996067     -133.593948      -41.156075
 C         -49.881310     -134.860214      -41.498562
 H         -49.158600     -134.910812      -44.897266
 H         -50.481026     -134.026321      -44.132893
 H         -48.268696     -131.812729      -41.966461
 H         -50.059315     -132.110458      -42.342266
 H         -48.491081     -135.949066      -42.796116
 H         -50.218773     -136.308914      -43.067284
 H         -49.326508     -133.037201      -40.313484
 H         -47.995552     -133.854706      -40.846840
 H         -49.552765     -135.621033      -40.642532
 H         -50.933758     -134.582428      -41.590286
