20
 generated by VMD
 C         -38.371258     -108.003082      -36.811474
 N         -38.246067     -108.600388      -37.820839
 H         -40.939983     -108.708771      -35.174610
 H         -38.319405     -107.412430      -35.930691
 C         -41.221226     -109.711235      -34.886662
 C         -40.416111     -110.860184      -35.159992
 C         -42.418274     -109.882904      -34.071583
 C         -40.165546     -111.701180      -33.989105
 C         -42.173634     -110.619202      -32.790314
 C         -41.475662     -111.984711      -33.099468
 H         -39.562412     -110.403191      -35.709915
 H         -41.106392     -111.369263      -35.845272
 H         -42.964550     -108.960548      -33.990170
 H         -43.145390     -110.461685      -34.646881
 H         -39.368690     -111.201035      -33.315800
 H         -39.878330     -112.735893      -34.223389
 H         -43.188255     -110.717949      -32.405060
 H         -41.642139     -110.198380      -32.026096
 H         -41.332867     -112.571892      -32.186886
 H         -42.199753     -112.676620      -33.750813
