20
 generated by VMD
 C         -39.721874     -105.565872      -37.052940
 N         -40.417763     -106.428467      -37.418480
 H         -38.926662     -107.750069      -34.954914
 H         -39.079437     -104.844078      -36.511314
 C         -39.258698     -108.546959      -34.251377
 C         -38.309975     -109.110016      -33.202427
 C         -40.731136     -109.072876      -34.497620
 C         -39.156300     -109.335793      -31.876066
 C         -41.336475     -109.398575      -33.080826
 C         -40.437374     -110.031227      -32.057980
 H         -37.466362     -108.421539      -33.092957
 H         -38.083832     -110.053505      -33.599648
 H         -41.468391     -108.421097      -35.113331
 H         -40.525269     -109.982056      -35.138371
 H         -39.279861     -108.292671      -31.494282
 H         -38.513218     -109.926308      -31.059418
 H         -42.238819     -109.985588      -33.194031
 H         -41.727760     -108.538429      -32.641468
 H         -41.004845     -110.070381      -31.042583
 H         -40.292637     -110.998604      -32.359772
