20
 generated by VMD
 C         -50.689335     -129.547180      -45.660820
 N         -51.154160     -130.596909      -45.425537
 H         -48.716461     -131.048126      -44.046059
 H         -50.229565     -128.806152      -46.296944
 C         -48.195168     -131.021835      -43.016014
 C         -48.374554     -132.316315      -42.296314
 C         -47.854694     -129.794647      -42.185009
 C         -47.227486     -132.513885      -41.219818
 C         -46.885971     -130.085297      -41.119278
 C         -47.068398     -131.354370      -40.318092
 H         -48.326481     -133.192001      -43.088039
 H         -49.262211     -132.380920      -41.756733
 H         -47.564262     -128.917496      -42.760300
 H         -48.864368     -129.397263      -41.641884
 H         -46.300838     -132.593887      -41.788948
 H         -47.420033     -133.283859      -40.502365
 H         -46.887119     -129.171921      -40.393192
 H         -45.912621     -130.072632      -41.596813
 H         -46.241154     -131.290253      -39.621735
 H         -47.968185     -131.240738      -39.665684
