20
 generated by VMD
 C         -59.739494     -157.465820      -56.514679
 N         -60.700123     -157.213211      -57.150177
 H         -59.759880     -157.303497      -53.214355
 H         -58.826836     -157.745789      -56.054306
 C         -59.184101     -157.941849      -52.552311
 C         -57.940174     -157.254440      -51.949745
 C         -59.403862     -159.392563      -52.763775
 C         -57.390091     -158.204025      -50.814865
 C         -58.929859     -160.159119      -51.501709
 C         -57.477242     -159.788208      -51.196877
 H         -58.140129     -156.323624      -51.500309
 H         -57.149731     -157.153107      -52.694607
 H         -60.543327     -159.583054      -52.879066
 H         -59.025787     -159.767746      -53.683155
 H         -58.028778     -158.111374      -49.946407
 H         -56.358822     -157.923035      -50.696014
 H         -58.928333     -161.157898      -51.883465
 H         -59.488613     -160.084045      -50.592789
 H         -56.957981     -160.426483      -50.402164
 H         -56.905449     -159.983414      -52.028290
