20
 generated by VMD
 C          -1.481919      -10.464829        1.042915
 N          -0.780198      -11.195448        1.579953
 H          -3.944236      -12.978984        0.108770
 H          -5.279757      -12.770026        1.221504
 C          -4.540061      -13.478868        0.856566
 C          -3.740286      -13.891732        2.076132
 C          -5.407833      -14.585531        0.293796
 C          -4.628828      -14.504009        3.165242
 C          -6.308095      -15.165038        1.441173
 C          -5.487728      -15.635666        2.664789
 H          -3.091984      -13.100930        2.375764
 H          -3.062710      -14.685038        1.708993
 H          -6.035890      -14.225745       -0.580110
 H          -4.802398      -15.497606       -0.096656
 H          -5.117858      -13.673111        3.677290
 H          -3.936889      -14.852813        3.898357
 H          -6.948728      -15.936399        1.032437
 H          -7.025704      -14.400420        1.701438
 H          -6.245576      -15.927919        3.455855
 H          -4.935400      -16.579647        2.415522
