20
 generated by VMD
 C         -68.391800     -193.860611      -65.837860
 N         -67.977936     -194.696915      -65.097702
 H         -70.495041     -191.623413      -67.141441
 H         -68.573677     -193.124100      -66.613564
 C         -71.488899     -191.784393      -66.726501
 C         -72.231476     -190.452667      -66.521164
 C         -71.978058     -193.068024      -66.021690
 C         -73.659035     -190.603195      -66.142876
 C         -73.051765     -192.788315      -64.956657
 C         -74.160866     -191.933792      -65.448387
 H         -72.191864     -189.916351      -67.387390
 H         -71.828156     -189.759354      -65.713982
 H         -72.325714     -193.707825      -66.825378
 H         -71.090515     -193.689133      -65.725250
 H         -74.327774     -190.449188      -67.041275
 H         -74.109245     -189.765808      -65.600945
 H         -72.450516     -192.274399      -64.134857
 H         -73.471718     -193.668610      -64.457535
 H         -74.508842     -192.512909      -66.317627
 H         -75.055611     -191.815689      -64.748108
