20
 generated by VMD
 C         -27.519962      -81.135902      -27.360205
 N         -28.563047      -81.631134      -27.622391
 H         -30.412416      -83.230110      -25.576855
 H         -26.581772      -80.753143      -27.165649
 C         -30.723110      -84.136009      -24.981316
 C         -30.547333      -84.101921      -23.428308
 C         -31.474985      -85.363617      -25.646917
 C         -31.742842      -84.647133      -22.691525
 C         -32.702553      -85.713051      -24.768059
 C         -32.326050      -85.881279      -23.302402
 H         -30.395695      -83.036873      -23.190277
 H         -29.739674      -84.740181      -23.315800
 H         -31.892859      -85.351372      -26.605886
 H         -30.728666      -86.157463      -25.520466
 H         -32.527748      -83.925659      -22.461246
 H         -31.475643      -84.982002      -21.709169
 H         -32.957233      -86.703743      -25.080502
 H         -33.490513      -85.041542      -25.105473
 H         -33.197231      -86.265266      -22.790894
 H         -31.527838      -86.695122      -23.243010
