20
 generated by VMD
 C         -41.262180     -102.346428      -34.554691
 N         -41.329102     -101.876190      -35.647377
 H         -39.618958     -104.416588      -32.104420
 H         -41.437309     -102.631142      -33.565220
 C         -38.617920     -104.500931      -31.960775
 C         -37.617180     -103.781540      -32.868950
 C         -38.196926     -105.601448      -30.996458
 C         -36.230900     -103.636604      -32.211163
 C         -36.933544     -105.057083      -30.287825
 C         -35.879108     -104.744781      -31.247475
 H         -37.727825     -102.722061      -33.138790
 H         -37.611694     -104.219261      -33.855927
 H         -38.942844     -105.910324      -30.159508
 H         -38.006866     -106.483482      -31.542269
 H         -36.248695     -102.672050      -31.761209
 H         -35.514736     -103.525246      -33.024803
 H         -36.533199     -105.887756      -29.639057
 H         -37.234127     -104.217667      -29.611692
 H         -34.974312     -104.488495      -30.729208
 H         -35.572376     -105.692245      -31.657431
