20
 generated by VMD
 C         -60.068142     -153.273621      -51.670364
 N         -60.267365     -152.196991      -51.425694
 H         -57.159676     -153.841400      -49.664158
 H         -59.872597     -154.275772      -51.918476
 C         -56.455284     -153.112015      -50.056366
 C         -55.125126     -153.184906      -49.506084
 C         -56.804623     -151.875290      -50.718697
 C         -53.969486     -152.778244      -50.329388
 C         -55.613068     -151.191269      -51.354141
 C         -54.163990     -151.331482      -50.785400
 H         -54.985794     -154.118393      -48.887787
 H         -54.919464     -152.438751      -48.706280
 H         -57.450356     -152.070679      -51.559288
 H         -57.256233     -151.166489      -49.988800
 H         -53.983559     -153.333817      -51.291931
 H         -53.049549     -152.957245      -49.859642
 H         -55.801426     -150.186752      -51.393784
 H         -55.376648     -151.507690      -52.421745
 H         -53.454498     -151.112106      -51.523903
 H         -54.091362     -150.541916      -49.927265
