20
 generated by VMD
 C         -77.175697     -203.672745      -66.960770
 N         -77.991638     -204.362488      -66.445625
 H         -75.931816     -200.534485      -68.843010
 H         -76.374977     -203.010910      -67.199905
 C         -74.952660     -200.083557      -69.192390
 C         -74.639687     -198.770493      -68.554802
 C         -73.776299     -200.852142      -69.590057
 C         -73.532074     -197.968292      -69.311172
 C         -72.840508     -200.054245      -70.507599
 C         -73.136925     -198.467804      -70.617828
 H         -74.335495     -198.884949      -67.449478
 H         -75.518944     -198.143677      -68.590172
 H         -73.240646     -201.211288      -68.659630
 H         -74.158684     -201.844620      -69.950378
 H         -72.661880     -197.916351      -68.611961
 H         -73.901054     -196.917313      -69.545677
 H         -72.862854     -200.479584      -71.525856
 H         -71.761261     -200.008698      -70.194954
 H         -72.167313     -197.971252      -71.085579
 H         -73.889748     -198.319839      -71.365784
