20
 generated by VMD
 C         -61.229378     -156.119354      -54.738529
 N         -60.523544     -155.973450      -55.674614
 H         -59.500023     -155.973038      -51.622929
 H         -61.939892     -156.085266      -53.908833
 C         -58.446861     -156.014206      -51.438248
 C         -57.610477     -154.957077      -50.766144
 C         -57.787247     -157.094315      -52.089245
 C         -56.246117     -155.400955      -50.136818
 C         -56.475883     -157.481079      -51.513237
 C         -55.604115     -156.226196      -51.160515
 H         -58.271988     -154.496109      -49.976860
 H         -57.393452     -154.263245      -51.565186
 H         -58.491383     -158.039932      -51.936974
 H         -57.684845     -156.985855      -53.199924
 H         -56.537926     -155.901398      -49.156189
 H         -55.521450     -154.574722      -49.679359
 H         -55.754322     -158.044815      -52.205765
 H         -56.595238     -158.195938      -50.703476
 H         -54.586323     -156.643600      -50.813461
 H         -55.385567     -155.608795      -52.030025
