20
 generated by VMD
 C         -12.771035      -28.429834       -5.825004
 N         -13.069920      -28.648426       -6.880005
 H         -12.078043      -31.300558       -4.990111
 H         -10.948754      -29.840158       -4.995451
 C         -11.056619      -30.913155       -4.741373
 C         -10.062325      -31.781267       -5.505904
 C         -10.815375      -31.125488       -3.239341
 C          -8.650622      -31.451502       -5.173961
 C          -9.422409      -30.604071       -2.954207
 C          -8.383649      -31.416765       -3.725747
 H         -10.370864      -31.653326       -6.571599
 H         -10.290565      -32.776573       -5.264012
 H         -11.501758      -30.517572       -2.653951
 H         -10.935700      -32.197445       -2.999178
 H          -8.404266      -30.516012       -5.614975
 H          -7.989662      -32.222511       -5.533872
 H          -9.159356      -30.583572       -1.920326
 H          -9.412517      -29.516813       -3.286813
 H          -7.380518      -31.010477       -3.585458
 H          -8.501306      -32.484325       -3.398475
