20
 generated by VMD
 C         -25.645231      -71.274902      -17.118883
 N         -25.463552      -71.300560      -15.986504
 H         -23.933487      -68.607758      -18.750174
 H         -26.038586      -71.227760      -18.114798
 C         -24.528275      -69.079590      -19.545919
 C         -23.954254      -69.901428      -20.617498
 C         -25.789064      -68.351349      -19.921421
 C         -24.929604      -70.899605      -21.217489
 C         -26.753075      -69.329132      -20.611549
 C         -26.056841      -70.080399      -21.722527
 H         -23.078447      -70.413940      -20.096329
 H         -23.450174      -69.110840      -21.225893
 H         -26.413631      -67.895264      -19.080540
 H         -25.628260      -67.537331      -20.608156
 H         -25.229570      -71.736771      -20.623667
 H         -24.329330      -71.280380      -22.086426
 H         -27.499241      -68.683197      -21.082544
 H         -27.217209      -70.095062      -19.964012
 H         -26.773125      -70.686989      -22.214481
 H         -25.566410      -69.509064      -22.478098
