20
 generated by VMD
 C         -67.914215     -185.193100      -68.037994
 N         -67.595474     -185.522324      -66.973434
 H         -69.697800     -186.032257      -64.603218
 H         -68.178596     -185.028534      -69.119110
 C         -69.960945     -186.300110      -63.610611
 C         -70.793327     -185.446625      -62.769634
 C         -69.234726     -187.519119      -63.053608
 C         -70.123016     -185.222534      -61.404640
 C         -68.806175     -187.245193      -61.587513
 C         -69.792000     -186.512085      -60.678879
 H         -71.792603     -185.905350      -62.529510
 H         -70.987534     -184.470367      -63.277256
 H         -69.928574     -188.401184      -63.088146
 H         -68.372353     -187.693436      -63.799873
 H         -70.956398     -184.797729      -60.845257
 H         -69.237244     -184.565552      -61.460609
 H         -67.874168     -186.551620      -61.562679
 H         -68.392532     -188.209900      -61.268188
 H         -70.745148     -187.341187      -60.694664
 H         -69.620399     -186.247040      -59.580685
