20
 generated by VMD
 C         -31.948561      -76.299911      -24.549692
 N         -31.606678      -76.750397      -25.552225
 H         -29.075724      -76.819214      -22.286320
 H         -31.970514      -75.846970      -23.669950
 C         -28.555634      -77.787971      -22.192226
 C         -27.562571      -78.083725      -23.219915
 C         -28.469147      -78.667053      -20.935747
 C         -26.099340      -78.118713      -22.728855
 C         -27.061323      -78.529045      -20.410114
 C         -26.066509      -79.152809      -21.528687
 H         -27.636688      -77.411652      -24.203314
 H         -27.933067      -79.052925      -23.680613
 H         -29.164423      -78.286751      -20.236471
 H         -28.842281      -79.703819      -21.219193
 H         -25.817654      -77.068382      -22.406921
 H         -25.450663      -78.470917      -23.518785
 H         -26.897514      -79.221672      -19.562103
 H         -26.842678      -77.372032      -20.027124
 H         -25.065058      -79.208260      -21.035881
 H         -26.471760      -80.139610      -21.918690
