20
 generated by VMD
 C         -11.836830      -25.757017       -0.873278
 N         -12.159192      -25.323505        0.109819
 H          -8.085047      -26.388176       -1.435223
 H          -9.254120      -25.847607       -2.658206
 C          -8.171421      -25.906534       -2.379822
 C          -7.391375      -26.710264       -3.485259
 C          -7.572424      -24.514734       -2.147200
 C          -7.219696      -25.878933       -4.847332
 C          -7.457944      -23.787785       -3.513168
 C          -6.603642      -24.585377       -4.508493
 H          -7.945141      -27.577160       -3.687794
 H          -6.459585      -27.169714       -3.233772
 H          -8.304634      -23.989515       -1.495661
 H          -6.656769      -24.570782       -1.555577
 H          -8.180019      -25.805742       -5.351244
 H          -6.651279      -26.455065       -5.579886
 H          -6.958168      -22.832964       -3.339424
 H          -8.421839      -23.560684       -3.982723
 H          -6.465560      -24.024101       -5.442379
 H          -5.547453      -24.731228       -4.169788
