20
 generated by VMD
 C          -6.150199      -22.260851        1.921232
 N          -6.465826      -22.957056        2.750191
 H          -5.431735      -19.395952       -0.652854
 H          -6.725027      -20.456215       -0.158717
 C          -6.251611      -20.022623       -1.111785
 C          -5.795303      -21.183296       -1.953884
 C          -7.139353      -19.064095       -1.831884
 C          -6.915550      -21.943308       -2.570582
 C          -8.303885      -19.870968       -2.442966
 C          -7.850306      -21.062880       -3.348976
 H          -5.259251      -21.891615       -1.269950
 H          -5.176458      -20.798689       -2.712101
 H          -7.486983      -18.351641       -1.144956
 H          -6.662745      -18.549944       -2.607583
 H          -7.439521      -22.579763       -1.870239
 H          -6.474821      -22.657507       -3.240122
 H          -8.951427      -19.195602       -3.009434
 H          -9.044177      -20.291962       -1.742286
 H          -8.760665      -21.632238       -3.490982
 H          -7.441368      -20.743584       -4.298576
