20
 generated by VMD
 C         -51.196140     -130.773178      -46.345898
 N         -50.340088     -130.380341      -47.013748
 H         -48.282551     -132.144928      -44.498276
 H         -51.661976     -131.112320      -45.430275
 C         -48.067059     -132.357956      -43.466717
 C         -48.633862     -133.707001      -42.988342
 C         -48.116192     -131.241226      -42.341339
 C         -48.309101     -134.119431      -41.549583
 C         -47.898129     -131.777451      -40.960491
 C         -48.650055     -133.052521      -40.561371
 H         -48.318005     -134.584045      -43.568039
 H         -49.730614     -133.579956      -43.071625
 H         -47.405346     -130.372345      -42.626801
 H         -49.125530     -131.019897      -42.503563
 H         -47.223053     -134.267624      -41.451092
 H         -48.848892     -135.020035      -41.186111
 H         -48.130974     -130.982285      -40.380451
 H         -46.831921     -131.967407      -40.738361
 H         -48.445377     -133.315781      -39.523842
 H         -49.614960     -132.709625      -40.611679
