20
 generated by VMD
 C         -28.889791      -74.074112      -19.473686
 N         -29.962708      -74.378616      -19.609169
 H         -25.731470      -73.150925      -18.810484
 H         -27.873291      -73.516754      -19.596550
 C         -25.913437      -73.221046      -19.852232
 C         -25.367596      -74.380119      -20.708622
 C         -25.752768      -71.882797      -20.487715
 C         -25.879074      -74.248367      -22.159489
 C         -26.167383      -71.854950      -21.894213
 C         -25.532984      -72.830231      -22.704226
 H         -25.693340      -75.409691      -20.329475
 H         -24.210403      -74.354950      -20.773260
 H         -26.348040      -71.166153      -19.855337
 H         -24.712225      -71.556412      -20.534969
 H         -26.972874      -74.286621      -22.191780
 H         -25.417194      -75.041908      -22.744726
 H         -25.957247      -70.876106      -22.232407
 H         -27.213142      -71.899918      -21.952793
 H         -25.839449      -72.690712      -23.791574
 H         -24.427513      -72.679237      -22.725142
