20
 generated by VMD
 C          -5.955765      -20.931438        1.852518
 N          -5.981123      -22.038950        1.999333
 H          -4.894746      -18.752964       -1.220871
 H          -5.745432      -19.843409       -0.071152
 C          -5.800513      -19.431599       -1.122771
 C          -5.522622      -20.429003       -2.259388
 C          -7.127237      -18.738708       -1.289255
 C          -6.562304      -21.501659       -2.369166
 C          -8.246974      -19.752502       -1.353108
 C          -8.002665      -20.961046       -2.361336
 H          -4.595940      -20.897488       -2.174282
 H          -5.399828      -19.788467       -3.172559
 H          -7.256672      -17.887428       -0.545015
 H          -7.149896      -18.102972       -2.314173
 H          -6.429502      -22.164768       -1.538466
 H          -6.460270      -22.139647       -3.236226
 H          -9.192877      -19.234182       -1.568495
 H          -8.391842      -20.188658       -0.362273
 H          -8.671284      -21.778397       -2.026691
 H          -8.367687      -20.813231       -3.394564
