20
 generated by VMD
 C         -31.208738      -75.642136      -21.534544
 N         -32.315723      -75.386932      -21.463707
 H         -27.845821      -75.523087      -19.861277
 H         -30.260199      -75.889809      -21.184584
 C         -27.107208      -75.370903      -20.676256
 C         -26.562294      -76.520493      -21.565048
 C         -26.142412      -74.241501      -20.492136
 C         -25.805723      -76.053185      -22.796902
 C         -25.432411      -73.816689      -21.749237
 C         -24.758883      -74.915367      -22.527153
 H         -27.375544      -77.246529      -21.878151
 H         -25.943901      -77.159920      -20.849773
 H         -26.644947      -73.295753      -20.158430
 H         -25.399094      -74.655159      -19.833584
 H         -26.532997      -75.665253      -23.479979
 H         -25.260975      -76.820946      -23.298124
 H         -24.750160      -73.023438      -21.436539
 H         -26.036264      -73.200165      -22.415512
 H         -24.267033      -74.625046      -23.439154
 H         -23.925892      -75.327805      -21.894691
