20
 generated by VMD
 C         -10.630909      -36.247215       -8.809242
 N         -10.725092      -36.643707       -7.758085
 H         -13.240493      -37.341217       -7.135023
 H         -14.449795      -38.022373       -6.083092
 C         -13.946269      -38.124310       -7.108749
 C         -13.075448      -39.403023       -7.222505
 C         -15.065157      -38.180882       -8.251945
 C         -13.867224      -40.719467       -7.150702
 C         -15.864074      -39.495621       -8.191474
 C         -14.987804      -40.750900       -8.198332
 H         -12.293034      -39.368019       -6.494055
 H         -12.657342      -39.471386       -8.198075
 H         -15.682653      -37.288273       -8.202115
 H         -14.530290      -38.196434       -9.176976
 H         -14.230803      -40.806484       -6.145117
 H         -13.195035      -41.581234       -7.292524
 H         -16.577265      -39.520885       -9.055274
 H         -16.427814      -39.485046       -7.238318
 H         -15.645780      -41.596600       -7.965149
 H         -14.614248      -40.927177       -9.189186
