20
 generated by VMD
 C         -28.288288      -83.984222      -27.208092
 N         -27.512758      -83.437454      -26.559084
 H         -31.928778      -84.285492      -26.117426
 H         -28.861115      -84.544113      -27.835991
 C         -31.663549      -85.227402      -25.757866
 C         -31.438091      -85.417564      -24.221031
 C         -32.040932      -86.484154      -26.552938
 C         -32.734573      -85.878288      -23.702801
 C         -33.249805      -87.131210      -25.900137
 C         -33.134460      -87.201660      -24.412725
 H         -31.221241      -84.498840      -23.618252
 H         -30.776237      -86.227432      -24.150585
 H         -32.025272      -86.351303      -27.592943
 H         -31.235336      -87.226013      -26.368591
 H         -33.589222      -85.167206      -23.810711
 H         -32.766727      -86.077858      -22.614296
 H         -33.262276      -88.172844      -26.312893
 H         -34.162716      -86.589470      -26.360483
 H         -34.262661      -87.401436      -24.076345
 H         -32.475700      -87.918785      -23.908569
