20
 generated by VMD
 C         -11.461074      -42.005711       -6.301790
 N         -11.062161      -41.159023       -6.907295
 H         -14.667191      -40.833015       -8.367914
 H         -15.668073      -40.398808       -9.868963
 C         -15.261021      -41.265484       -9.225625
 C         -16.493046      -41.874676       -8.598100
 C         -14.577886      -42.200581      -10.177766
 C         -17.423262      -42.462177       -9.615513
 C         -15.415704      -42.969105      -11.128292
 C         -16.757393      -43.446175      -10.551406
 H         -17.025759      -41.087639       -8.051842
 H         -16.219034      -42.636173       -7.811292
 H         -13.842738      -41.647747      -10.701708
 H         -13.924256      -42.867188       -9.583796
 H         -17.891081      -41.634338      -10.160777
 H         -18.340364      -42.941788       -9.268932
 H         -14.814007      -43.863529      -11.453181
 H         -15.691526      -42.360760      -11.976587
 H         -17.359737      -43.660229      -11.424977
 H         -16.611631      -44.331200       -9.898305
