20
 generated by VMD
 C         -38.034744     -114.050476      -35.346809
 N         -38.499710     -115.125038      -35.230148
 H         -41.447803     -114.485626      -36.410290
 H         -37.590038     -113.155685      -35.727604
 C         -42.413185     -114.887505      -36.710400
 C         -42.731518     -115.043373      -38.143124
 C         -43.529003     -114.805061      -35.674946
 C         -44.007179     -115.763916      -38.462666
 C         -44.694599     -115.685562      -36.041183
 C         -45.257839     -115.361900      -37.458652
 H         -41.907455     -115.318092      -38.793049
 H         -42.870602     -114.054726      -38.533051
 H         -43.134655     -115.193558      -34.691368
 H         -43.906456     -113.774239      -35.716843
 H         -43.933197     -116.892654      -38.365627
 H         -44.396759     -115.615395      -39.465813
 H         -45.505817     -115.456215      -35.390259
 H         -44.226128     -116.643784      -35.950108
 H         -46.123669     -116.021576      -37.717049
 H         -45.621799     -114.404068      -37.788399
