20
 generated by VMD
 C         -50.774891     -129.633194      -45.962406
 N         -50.941799     -130.520447      -45.205372
 H         -48.095108     -131.045685      -44.150009
 H         -50.507874     -128.645676      -46.306351
 C         -48.110073     -131.271225      -43.161766
 C         -48.332455     -132.542145      -42.400478
 C         -47.984592     -130.078415      -42.343517
 C         -47.379219     -132.718262      -41.207878
 C         -46.989162     -130.259842      -41.163425
 C         -47.377594     -131.408585      -40.286160
 H         -48.172688     -133.420715      -42.963623
 H         -49.406239     -132.517517      -41.953876
 H         -47.629429     -129.162460      -42.910736
 H         -49.023476     -129.807083      -42.037636
 H         -46.370125     -133.001999      -41.497021
 H         -47.717499     -133.471085      -40.495216
 H         -47.017067     -129.351578      -40.592999
 H         -45.946640     -130.227722      -41.534931
 H         -46.617069     -131.437302      -39.440430
 H         -48.435013     -131.189651      -39.933739
