20
 generated by VMD
 C         -13.108233      -29.848246       -7.441211
 N         -13.633738      -29.278206       -8.248065
 H         -11.526727      -30.358128       -5.068717
 H         -10.283046      -30.260347       -3.741805
 C         -10.737039      -30.920511       -4.461751
 C          -9.751338      -31.447939       -5.480828
 C         -11.396453      -32.037655       -3.582078
 C          -8.822528      -32.439152       -4.825217
 C         -10.423304      -33.146091       -3.114990
 C          -9.515005      -33.630150       -4.230203
 H          -9.245637      -30.612324       -5.851445
 H         -10.219438      -31.886307       -6.391265
 H         -11.940167      -31.535746       -2.768354
 H         -12.133203      -32.521385       -4.221252
 H          -8.182227      -31.968185       -4.010721
 H          -8.091005      -32.841393       -5.541144
 H         -10.912820      -34.081173       -2.780347
 H          -9.791416      -32.873768       -2.268198
 H          -8.862076      -34.406361       -3.786523
 H         -10.151278      -34.175354       -4.936887
