20
 generated by VMD
 C         -47.528019     -139.280838      -45.749283
 N         -46.718052     -138.780258      -46.475719
 H         -50.892273     -138.525787      -44.803875
 H         -48.114368     -139.949188      -45.168625
 C         -51.801598     -138.966385      -45.193588
 C         -51.853073     -139.270142      -46.647015
 C         -53.099869     -138.581024      -44.413555
 C         -53.028183     -140.279816      -46.930012
 C         -54.113098     -139.606018      -44.726501
 C         -54.288284     -139.767715      -46.267982
 H         -51.011349     -139.777756      -46.957920
 H         -51.945877     -138.331497      -47.178574
 H         -52.872440     -138.429916      -43.311584
 H         -53.492840     -137.630402      -44.858852
 H         -52.674496     -141.224655      -46.662415
 H         -53.166409     -140.307587      -48.024902
 H         -55.121170     -139.400604      -44.300156
 H         -53.733482     -140.486710      -44.288780
 H         -55.011795     -140.602020      -46.328037
 H         -54.615181     -138.704910      -46.884266
