20
 generated by VMD
 C         -48.016842     -133.841202      -47.579849
 N         -48.121597     -133.333496      -48.584217
 H         -49.275482     -134.189087      -43.994736
 H         -48.188591     -134.537643      -46.764343
 C         -50.000347     -134.977890      -43.590954
 C         -50.205540     -136.145554      -44.543179
 C         -51.068790     -134.717834      -42.622723
 C         -50.484550     -137.460571      -43.643696
 C         -51.343296     -135.967880      -41.745781
 C         -51.693436     -137.149704      -42.742527
 H         -49.349739     -136.355927      -45.079945
 H         -51.018013     -136.123947      -45.269508
 H         -50.760391     -133.982727      -41.868202
 H         -51.960720     -134.378967      -43.100864
 H         -49.650276     -137.822266      -43.070114
 H         -50.860641     -138.285965      -44.333202
 H         -52.022186     -135.600143      -41.004543
 H         -50.375462     -136.142120      -41.154732
 H         -51.937233     -138.036942      -42.036758
 H         -52.490761     -136.841919      -43.347683
