20
 generated by VMD
 C         -50.713570     -128.457794      -41.996277
 N         -51.830170     -128.396088      -41.851131
 H         -47.790493     -128.112259      -40.718056
 H         -49.710732     -128.752335      -42.268333
 C         -46.949211     -127.442291      -40.732143
 C         -45.652905     -128.101562      -40.171844
 C         -46.955395     -126.051498      -41.251198
 C         -44.440754     -127.585930      -40.816093
 C         -45.601917     -125.659683      -41.890560
 C         -44.376278     -126.132416      -41.114738
 H         -45.608719     -129.198990      -40.353180
 H         -45.598957     -127.952202      -39.081669
 H         -47.616539     -126.103325      -42.103828
 H         -47.089767     -125.208725      -40.500389
 H         -44.527096     -128.095917      -41.782555
 H         -43.604477     -127.795410      -40.210197
 H         -45.514366     -124.543182      -42.145718
 H         -45.591442     -126.185303      -42.896759
 H         -43.469337     -125.944809      -41.743179
 H         -44.198185     -125.424248      -40.341797
