20
 generated by VMD
 C         -74.573616     -201.127090      -66.040009
 N         -73.426376     -200.929840      -66.178650
 H         -76.374771     -198.687393      -68.405075
 H         -75.586792     -201.467880      -66.095871
 C         -75.411301     -198.292908      -68.796547
 C         -75.003693     -197.121567      -67.998489
 C         -74.479263     -199.044403      -69.753906
 C         -73.526863     -196.686615      -68.079842
 C         -73.174881     -198.255035      -70.036263
 C         -72.669380     -197.860214      -68.712654
 H         -75.315155     -197.354202      -66.931709
 H         -75.542297     -196.162308      -68.305359
 H         -74.165230     -200.006546      -69.296425
 H         -75.060677     -199.197662      -70.691620
 H         -73.142708     -196.543243      -67.089584
 H         -73.230583     -195.877335      -68.754875
 H         -73.293068     -197.320496      -70.621063
 H         -72.513481     -198.885056      -70.737610
 H         -72.660233     -198.709183      -68.076141
 H         -71.494240     -197.600342      -68.811287
