20
 generated by VMD
 C         -10.787307      -25.738997       -0.844875
 N         -11.060479      -24.685446       -0.582741
 H          -6.848444      -25.596489       -0.905812
 H          -8.553660      -25.359241       -1.447178
 C          -7.494416      -25.291748       -1.772952
 C          -7.207247      -26.143627       -2.982282
 C          -7.142147      -23.846558       -1.998775
 C          -7.832248      -25.499376       -4.229979
 C          -7.798623      -23.203390       -3.301857
 C          -7.444172      -24.115366       -4.465720
 H          -7.743940      -27.099163       -2.870437
 H          -6.226307      -26.458660       -3.067948
 H          -7.525890      -23.351526       -1.114915
 H          -6.014125      -23.712292       -1.881128
 H          -8.929463      -25.565218       -4.217283
 H          -7.577073      -26.160461       -5.094482
 H          -7.415054      -22.192932       -3.503001
 H          -8.879190      -23.110893       -3.117707
 H          -7.935133      -23.843712       -5.398067
 H          -6.355176      -23.915247       -4.710511
