20
 generated by VMD
 C         -63.053810     -174.880020      -54.807888
 N         -62.958809     -174.287323      -55.806740
 H         -64.037422     -173.266602      -57.822475
 H         -63.261044     -175.322372      -53.833359
 C         -64.184265     -172.374283      -58.354210
 C         -64.420280     -171.116638      -57.610474
 C         -64.369331     -172.251617      -59.801487
 C         -63.828945     -169.899307      -58.268513
 C         -63.987919     -170.935394      -60.447098
 C         -64.423782     -169.708038      -59.627037
 H         -63.966450     -171.149307      -56.639496
 H         -65.632584     -171.018234      -57.511890
 H         -63.904705     -173.024384      -60.386044
 H         -65.352631     -172.415771      -60.038376
 H         -62.679993     -170.052277      -58.367668
 H         -64.076019     -169.033112      -57.637074
 H         -64.343796     -170.895676      -61.518459
 H         -62.899616     -171.010406      -60.472980
 H         -63.945309     -168.801468      -60.124054
 H         -65.514450     -169.548599      -59.534569
