20
 generated by VMD
 C         -40.858047     -103.965805      -36.997715
 N         -40.947121     -104.877106      -36.280846
 H         -39.558113     -105.383385      -33.879787
 H         -40.624672     -103.093346      -37.654617
 C         -39.162159     -106.308937      -33.452358
 C         -37.880577     -106.086952      -32.682507
 C         -39.710361     -107.680191      -33.443207
 C         -37.646130     -106.812065      -31.315107
 C         -39.512444     -108.307770      -32.025581
 C         -38.111710     -108.278816      -31.474045
 H         -37.678757     -104.983757      -32.565861
 H         -37.055321     -106.377075      -33.298977
 H         -40.774761     -107.676132      -33.841640
 H         -39.189365     -108.416115      -34.137760
 H         -38.118568     -106.195518      -30.613152
 H         -36.587936     -106.800148      -31.118559
 H         -39.900387     -109.328178      -31.997128
 H         -40.190281     -107.867249      -31.266788
 H         -38.097881     -108.742264      -30.447800
 H         -37.393723     -108.848862      -31.998716
