20
 generated by VMD
 C         -11.228884      -40.777802       -7.416232
 N         -11.634049      -40.412315       -6.455001
 H         -13.690966      -40.806431       -8.542991
 H         -15.107894      -39.966167       -9.137508
 C         -14.660867      -40.948429       -9.020404
 C         -15.647636      -41.676746       -8.106077
 C         -14.440355      -41.794838      -10.323994
 C         -16.958666      -42.084667       -8.791287
 C         -15.688500      -42.401428      -10.996404
 C         -16.630314      -42.986244      -10.006426
 H         -15.974843      -41.052559       -7.281873
 H         -15.229227      -42.579372       -7.742700
 H         -14.015098      -41.116417      -11.053463
 H         -13.742663      -42.563660      -10.046181
 H         -17.420727      -41.177765       -9.126306
 H         -17.542614      -42.635658       -8.013991
 H         -15.300857      -43.152531      -11.742003
 H         -16.104076      -41.648163      -11.634527
 H         -17.603424      -43.295612      -10.484246
 H         -16.259914      -43.992989       -9.693337
