20
 generated by VMD
 C         -50.033146     -130.661148      -45.730061
 N         -50.867107     -129.952667      -45.541824
 H         -47.411503     -132.216980      -44.294468
 H         -49.251869     -131.385956      -45.978928
 C         -48.099907     -132.171631      -43.484943
 C         -48.486267     -133.507858      -42.796185
 C         -48.430809     -130.864334      -42.790821
 C         -47.975113     -133.472275      -41.369801
 C         -47.813545     -130.878830      -41.429642
 C         -48.208954     -132.187149      -40.630466
 H         -48.176910     -134.416794      -43.389164
 H         -49.549019     -133.558304      -42.597496
 H         -47.966763     -130.041855      -43.441467
 H         -49.522198     -130.816879      -42.706676
 H         -46.897964     -133.679474      -41.454872
 H         -48.465652     -134.260162      -40.780033
 H         -48.032833     -130.079239      -40.720882
 H         -46.691628     -131.063583      -41.457241
 H         -47.732979     -132.192688      -39.619862
 H         -49.280720     -132.101349      -40.367451
