20
 generated by VMD
 C         -33.689739      -96.176247      -25.191675
 N         -33.131592      -97.180695      -25.377798
 H         -34.914658      -93.450401      -27.365437
 H         -34.319336      -95.208267      -25.232653
 C         -34.802498      -93.661552      -28.433971
 C         -36.043392      -94.011375      -29.264711
 C         -33.509747      -93.371330      -29.218014
 C         -36.256298      -93.255898      -30.521708
 C         -33.761299      -92.576675      -30.466436
 C         -34.884186      -93.150887      -31.186184
 H         -36.959560      -94.051643      -28.598137
 H         -35.932140      -95.019089      -29.605700
 H         -32.696426      -92.965775      -28.540657
 H         -33.135292      -94.366447      -29.504158
 H         -36.499466      -92.196594      -30.294600
 H         -37.080524      -93.711052      -31.095160
 H         -32.908916      -92.694405      -31.222387
 H         -33.958580      -91.590019      -30.184427
 H         -35.048409      -92.646576      -32.232861
 H         -34.544056      -94.284943      -31.457687
