20
 generated by VMD
 C         -79.596497     -206.931427      -74.352066
 N         -80.378952     -206.043518      -74.523933
 H         -78.040108     -206.923309      -72.253464
 H         -79.120216     -207.862427      -74.242401
 C         -77.255241     -207.175674      -71.535393
 C         -75.974831     -206.358368      -71.559708
 C         -77.287643     -208.374527      -70.647293
 C         -75.425079     -206.157150      -70.126236
 C         -76.659660     -208.112778      -69.349609
 C         -75.269562     -207.417786      -69.326530
 H         -76.299538     -205.516006      -72.155663
 H         -75.179169     -206.769821      -72.193169
 H         -78.350128     -208.588379      -70.484459
 H         -76.902588     -209.318405      -71.184372
 H         -76.147682     -205.550720      -69.600647
 H         -74.447693     -205.651367      -70.094627
 H         -76.628319     -208.994354      -68.711212
 H         -77.416702     -207.436798      -68.844437
 H         -75.190712     -207.303955      -68.206451
 H         -74.464104     -208.030045      -69.694908
