20
 generated by VMD
 C         -40.304039     -118.458549      -34.936161
 N         -39.450062     -117.710365      -35.042328
 H         -42.936420     -117.018372      -36.198570
 H         -41.288334     -118.976006      -34.893009
 C         -43.468914     -116.776474      -37.151066
 C         -42.877747     -117.070625      -38.459160
 C         -44.807182     -116.194580      -37.144379
 C         -43.873558     -117.816345      -39.388824
 C         -45.748398     -116.973984      -38.014809
 C         -45.255920     -117.204857      -39.479580
 H         -41.983753     -117.750717      -38.496586
 H         -42.660240     -116.108162      -39.038231
 H         -45.043037     -116.145233      -36.070477
 H         -44.726101     -115.263229      -37.565662
 H         -43.939934     -118.847420      -39.154274
 H         -43.551811     -117.717232      -40.388775
 H         -46.818954     -116.510628      -37.770531
 H         -45.956760     -118.008987      -37.622372
 H         -46.025566     -117.916199      -39.920803
 H         -45.354630     -116.346893      -40.053802
