20
 generated by VMD
 C          -9.048860      -23.743561        2.635762
 N          -8.453857      -24.692766        2.739583
 H          -8.379239      -23.476736       -1.241746
 H          -9.146986      -22.539452       -2.593639
 C          -8.237072      -22.997007       -2.208479
 C          -7.658595      -24.042400       -3.129996
 C          -7.279812      -21.814653       -2.002149
 C          -7.282004      -23.517498       -4.532485
 C          -6.872543      -21.214676       -3.425933
 C          -6.422206      -22.295366       -4.463602
 H          -8.416521      -24.828074       -3.180158
 H          -6.729051      -24.391289       -2.786604
 H          -7.685497      -20.997650       -1.351910
 H          -6.427480      -22.167698       -1.401680
 H          -8.224748      -23.225010       -5.050285
 H          -6.853073      -24.315460       -5.124260
 H          -6.120377      -20.377485       -3.430402
 H          -7.796954      -20.723467       -3.793271
 H          -6.272795      -21.939562       -5.514485
 H          -5.411276      -22.547852       -4.142577
