20
 generated by VMD
 C         -47.862736     -134.833115      -46.410618
 N         -47.853226     -134.648651      -47.522888
 H         -50.617020     -134.591705      -45.154499
 H         -48.131351     -135.164963      -45.461975
 C         -50.924709     -135.466553      -44.701302
 C         -51.473091     -136.688202      -45.380138
 C         -51.148697     -135.244461      -43.178612
 C         -51.214653     -138.029999      -44.486214
 C         -50.935150     -136.533951      -42.393444
 C         -51.647125     -137.789825      -43.074329
 H         -50.812176     -136.895493      -46.302441
 H         -52.458138     -136.681183      -45.728935
 H         -50.588959     -134.487045      -42.683559
 H         -52.203171     -135.022720      -43.053776
 H         -50.175495     -138.402252      -44.560986
 H         -51.822170     -138.752167      -45.037617
 H         -51.423378     -136.361877      -41.354885
 H         -49.833534     -136.703568      -42.269955
 H         -51.424465     -138.660736      -42.516155
 H         -52.688854     -137.680054      -43.094868
