20
 generated by VMD
 C         -30.776600      -75.033150      -22.707218
 N         -31.263159      -75.498955      -21.725737
 H         -28.832098      -77.200974      -21.875824
 H         -30.245996      -75.068840      -23.578480
 C         -27.797508      -77.032730      -21.548855
 C         -26.660677      -77.824272      -22.173592
 C         -27.467581      -75.891243      -20.608036
 C         -25.838737      -76.875572      -22.957926
 C         -26.573549      -74.884033      -21.425714
 C         -25.415522      -75.585236      -22.212307
 H         -26.960266      -78.779015      -22.758972
 H         -25.923994      -78.219795      -21.331924
 H         -28.471401      -75.427795      -20.202898
 H         -26.914738      -76.384834      -19.794968
 H         -26.409536      -76.570679      -23.825869
 H         -25.015984      -77.474884      -23.341183
 H         -26.188391      -74.210068      -20.609390
 H         -27.221975      -74.334496      -22.118128
 H         -24.689913      -74.927498      -22.713364
 H         -24.868502      -75.904854      -21.318943
