20
 generated by VMD
 C         -12.559491      -30.255676       -8.075891
 N         -13.231418      -30.423113       -7.200969
 H         -11.227977      -30.378132       -5.142842
 H         -10.565482      -30.829405       -3.640930
 C         -10.805860      -31.209663       -4.672328
 C          -9.621888      -31.658375       -5.381588
 C         -11.879542      -32.328636       -4.547807
 C          -9.084126      -32.894653       -4.711288
 C         -11.353262      -33.549137       -3.801312
 C         -10.119812      -34.051823       -4.431375
 H          -8.846051      -30.839773       -5.413406
 H          -9.901405      -31.772083       -6.377471
 H         -12.809794      -31.977942       -4.060313
 H         -12.178355      -32.568195       -5.592493
 H          -8.705630      -32.618107       -3.675009
 H          -8.159747      -33.275867       -5.265849
 H         -12.018961      -34.358459       -3.692542
 H         -11.114200      -33.265697       -2.740073
 H          -9.693741      -34.914043       -3.876470
 H         -10.429412      -34.542763       -5.429695
