20
 generated by VMD
 C         -60.723366     -156.241287      -54.689018
 N         -60.186707     -155.489563      -55.386372
 H         -59.735645     -156.981445      -51.535770
 H         -61.110336     -157.059341      -54.145760
 C         -58.734512     -156.930145      -51.951519
 C         -58.076450     -155.564728      -51.948738
 C         -57.870590     -158.172836      -52.119488
 C         -56.995209     -155.592026      -50.928192
 C         -56.824642     -158.191849      -50.972534
 C         -55.975834     -156.923782      -51.018299
 H         -58.953110     -154.806686      -51.847404
 H         -57.577717     -155.424728      -52.928410
 H         -58.494812     -159.034531      -51.895962
 H         -57.341221     -158.200134      -53.014889
 H         -57.547741     -155.677124      -49.963650
 H         -56.209511     -154.832260      -50.919430
 H         -55.962757     -158.895584      -51.143063
 H         -57.300411     -158.375381      -50.051529
 H         -55.255165     -156.952606      -50.152977
 H         -55.473289     -156.880127      -51.990524
