20
 generated by VMD
 C         -21.639513      -66.388817      -16.716475
 N         -20.891823      -66.846802      -15.952944
 H         -23.880911      -64.666862      -18.096983
 H         -22.554174      -65.751678      -17.086939
 C         -24.481438      -65.414581      -18.550303
 C         -24.365105      -65.817535      -20.042519
 C         -25.711494      -65.917091      -17.822098
 C         -24.284101      -67.262398      -20.144188
 C         -25.776148      -67.373718      -17.993530
 C         -25.498058      -67.890991      -19.448660
 H         -23.491608      -65.412926      -20.367937
 H         -25.207397      -65.354332      -20.618761
 H         -25.636021      -65.610550      -16.674761
 H         -26.681728      -65.496452      -18.250887
 H         -23.380432      -67.595207      -19.577406
 H         -24.153950      -67.685410      -21.097044
 H         -26.770973      -67.714630      -17.546291
 H         -24.968290      -67.754623      -17.401234
 H         -25.506086      -69.019981      -19.449352
 H         -26.411650      -67.629021      -20.003761
