20
 generated by VMD
 C         -50.741238     -129.630936      -45.894047
 N         -50.973705     -130.525070      -45.245880
 H         -48.106613     -131.410889      -44.136467
 H         -50.583050     -128.687256      -46.343369
 C         -48.152561     -131.239548      -43.105965
 C         -48.320160     -132.511536      -42.372429
 C         -47.968639     -129.973801      -42.298084
 C         -47.349640     -132.705338      -41.175907
 C         -46.943798     -130.124329      -41.179028
 C         -47.329842     -131.431519      -40.323997
 H         -48.270786     -133.290680      -43.161388
 H         -49.419666     -132.584229      -42.066261
 H         -47.681873     -129.211517      -43.073002
 H         -48.942329     -129.676483      -41.748352
 H         -46.356747     -132.928864      -41.533447
 H         -47.695335     -133.626816      -40.716240
 H         -46.874882     -129.208069      -40.555359
 H         -45.987175     -130.410202      -41.604324
 H         -46.814476     -131.649002      -39.363594
 H         -48.409164     -131.274139      -40.005920
