20
 generated by VMD
 C         -31.122614      -75.691185      -21.478067
 N         -32.141968      -75.225128      -21.203890
 H         -27.960993      -74.905609      -20.394236
 H         -30.299582      -76.102577      -22.194103
 C         -26.872763      -75.021088      -20.505589
 C         -26.429749      -76.251122      -21.267063
 C         -25.761026      -73.966736      -20.371052
 C         -25.983780      -75.785889      -22.764475
 C         -25.365204      -73.532799      -21.796844
 C         -24.928751      -74.701637      -22.610331
 H         -27.136026      -76.945099      -21.233318
 H         -25.536810      -76.634209      -20.769997
 H         -26.248466      -73.043472      -19.764833
 H         -24.883181      -74.384689      -19.862316
 H         -26.894981      -75.392189      -23.232412
 H         -25.628006      -76.596031      -23.394678
 H         -24.549831      -72.804527      -21.536007
 H         -26.068022      -72.814880      -22.330622
 H         -24.633991      -74.182549      -23.509174
 H         -24.009232      -75.173576      -22.248207
