20
 generated by VMD
 C         -49.686192     -131.827194      -46.546822
 N         -50.089180     -132.598572      -47.389084
 H         -48.093067     -132.571854      -44.320431
 H         -49.126076     -131.105942      -45.917278
 C         -48.661320     -133.191910      -43.661888
 C         -49.467651     -134.408585      -44.011143
 C         -49.070980     -132.596497      -42.297089
 C         -49.498478     -135.496628      -42.815929
 C         -49.041168     -133.612106      -41.176128
 C         -49.861259     -134.825256      -41.452412
 H         -49.113392     -134.857315      -45.040752
 H         -50.498287     -134.113739      -44.205685
 H         -48.322643     -131.894089      -42.059315
 H         -50.002872     -132.096069      -42.369995
 H         -48.549267     -135.968506      -42.785492
 H         -50.210358     -136.176895      -43.205254
 H         -49.473068     -133.135040      -40.241360
 H         -47.939598     -133.852356      -40.874985
 H         -49.702473     -135.533005      -40.722473
 H         -50.965603     -134.696930      -41.440556
