20
 generated by VMD
 C         -63.126968     -174.848312      -54.904247
 N         -62.906265     -174.291855      -55.894600
 H         -64.464317     -173.341705      -57.911934
 H         -63.337490     -175.452316      -54.048100
 C         -64.311684     -172.326508      -58.334145
 C         -64.503128     -171.154160      -57.482906
 C         -64.392349     -172.394653      -59.817318
 C         -63.801865     -169.931564      -58.210003
 C         -63.863907     -171.002335      -60.468315
 C         -64.398430     -169.723495      -59.706421
 H         -64.182312     -171.282532      -56.469810
 H         -65.606735     -170.854431      -57.390797
 H         -63.743771     -173.187500      -60.155334
 H         -65.439682     -172.582092      -60.207806
 H         -62.769379     -170.024918      -58.192062
 H         -63.872097     -169.026871      -57.628841
 H         -64.227348     -170.965393      -61.516098
 H         -62.748692     -170.917023      -60.417549
 H         -64.149895     -168.802246      -60.147968
 H         -65.508751     -169.788406      -59.754250
