20
 generated by VMD
 C         -17.499819      -48.192719       -6.921053
 N         -16.940475      -47.243732       -6.691733
 H         -16.599934      -48.567707      -10.439565
 H         -15.571911      -48.606102      -11.903302
 C         -16.328550      -48.049885      -11.361132
 C         -15.741440      -46.682827      -11.013124
 C         -17.575996      -47.957039      -12.246040
 C         -15.525935      -45.789951      -12.287681
 C         -17.374714      -47.007751      -13.454242
 C         -16.845152      -45.660229      -13.097228
 H         -14.777748      -46.754868      -10.421750
 H         -16.383734      -46.138733      -10.291055
 H         -17.843143      -48.991894      -12.622237
 H         -18.495829      -47.687923      -11.666466
 H         -14.741102      -46.252186      -12.918258
 H         -15.134687      -44.779598      -12.028287
 H         -18.258520      -46.787239      -13.985538
 H         -16.705194      -47.662350      -14.080574
 H         -16.680586      -45.061058      -13.992027
 H         -17.570072      -45.152634      -12.511858
