20
 generated by VMD
 C         -79.564766     -205.676071      -72.733437
 N         -80.257431     -206.578033      -72.503059
 H         -77.611977     -204.623596      -70.785591
 H         -78.728378     -205.041840      -73.074799
 C         -76.694321     -205.167694      -70.960190
 C         -75.545959     -204.282486      -71.305916
 C         -76.419640     -206.542130      -70.368721
 C         -74.782753     -204.125137      -70.051643
 C         -75.638382     -206.316177      -69.158951
 C         -74.350548     -205.494339      -69.532707
 H         -75.817413     -203.303314      -71.738297
 H         -74.890099     -204.749664      -72.034760
 H         -77.354790     -207.060242      -70.191658
 H         -76.030258     -207.141266      -71.172974
 H         -75.293320     -203.688309      -69.124290
 H         -73.831436     -203.529861      -70.308098
 H         -75.405853     -207.362061      -68.846237
 H         -76.051712     -205.846329      -68.375221
 H         -73.843849     -205.178619      -68.560799
 H         -73.695450     -206.074844      -70.171577
