20
 generated by VMD
 C         -19.880228      -50.705009      -10.308325
 N         -20.348154      -51.222591       -9.370522
 H         -17.455284      -49.049950      -10.032932
 H         -19.382500      -49.877396      -11.172574
 C         -17.289854      -49.049049      -11.068770
 C         -16.149496      -49.906727      -11.626179
 C         -17.484806      -47.885448      -11.971637
 C         -16.203062      -50.322815      -13.108624
 C         -17.623072      -48.302643      -13.473584
 C         -16.547668      -49.230545      -14.059441
 H         -16.018070      -50.772915      -10.982420
 H         -15.164754      -49.393467      -11.512468
 H         -18.467775      -47.512550      -11.679069
 H         -16.698795      -47.156982      -11.848278
 H         -16.912464      -51.183235      -13.300888
 H         -15.210699      -50.822582      -13.363339
 H         -17.600082      -47.441673      -14.102469
 H         -18.732401      -48.660480      -13.675844
 H         -16.781929      -49.701771      -15.048082
 H         -15.639052      -48.593044      -14.165148
