20
 generated by VMD
 C         -31.071135      -74.825645      -22.049728
 N         -31.367184      -75.931152      -21.720436
 H         -28.674549      -76.601196      -21.273897
 H         -30.795464      -73.701614      -22.077280
 C         -27.625639      -76.426300      -21.288473
 C         -26.706053      -77.303383      -21.957823
 C         -27.059418      -75.160652      -20.659958
 C         -25.806187      -76.565155      -22.897518
 C         -26.072735      -74.482239      -21.578833
 C         -25.101439      -75.421295      -22.214140
 H         -27.303478      -77.869072      -22.510508
 H         -26.153357      -78.000137      -21.302973
 H         -27.922918      -74.423309      -20.428343
 H         -26.535164      -75.375954      -19.736973
 H         -26.361668      -76.132492      -23.708797
 H         -25.185474      -77.342834      -23.293987
 H         -25.506262      -73.719963      -21.099289
 H         -26.638908      -74.107582      -22.358311
 H         -24.270494      -74.995087      -22.741451
 H         -24.522280      -75.868439      -21.400333
