20
 generated by VMD
 C         -78.779617     -204.386276      -70.696465
 N         -79.838524     -204.330338      -70.300835
 H         -76.359146     -203.281082      -68.136902
 H         -77.754128     -204.530975      -71.043991
 C         -75.509644     -202.837006      -68.748856
 C         -75.719978     -201.548096      -69.599121
 C         -74.341911     -203.750198      -68.859810
 C         -74.762428     -201.793060      -70.823708
 C         -73.111504     -202.927628      -69.186745
 C         -73.317436     -201.832397      -70.346664
 H         -75.492912     -200.558289      -69.009018
 H         -76.769753     -201.456650      -69.861847
 H         -74.134651     -204.375824      -67.939369
 H         -74.564423     -204.380722      -69.758430
 H         -74.833572     -200.954132      -71.524033
 H         -74.978554     -202.682587      -71.377083
 H         -72.336594     -203.664291      -69.512802
 H         -72.786179     -202.474350      -68.220184
 H         -73.097107     -200.797989      -69.775337
 H         -72.589104     -202.103699      -71.135300
