20
 generated by VMD
 C         -18.310297      -50.316978       -9.349504
 N         -19.428471      -50.283741       -9.321494
 H         -16.444578      -47.044285      -10.053706
 H         -17.653490      -48.307346      -10.508128
 C         -16.774385      -47.704266      -10.882765
 C         -15.757795      -48.601486      -11.402503
 C         -17.354149      -46.915272      -12.013793
 C         -16.108816      -49.400986      -12.679865
 C         -18.072083      -47.884697      -12.946684
 C         -17.015100      -48.707882      -13.693133
 H         -15.278832      -49.156525      -10.537026
 H         -14.907011      -47.999954      -11.757432
 H         -18.141958      -46.250320      -11.675060
 H         -16.613867      -46.276596      -12.513304
 H         -16.646948      -50.314495      -12.321919
 H         -15.282175      -49.889393      -13.191806
 H         -18.718933      -47.367813      -13.729558
 H         -18.752005      -48.485229      -12.414257
 H         -17.468937      -49.501591      -14.352644
 H         -16.441391      -47.949783      -14.329026
