20
 generated by VMD
 C         -19.796562      -60.148609      -17.796122
 N         -19.617128      -59.050739      -18.022860
 H         -22.738686      -59.834797      -15.920739
 H         -19.886507      -61.220291      -17.336090
 C         -22.926851      -60.868622      -16.002014
 C         -23.252369      -61.486485      -17.330561
 C         -23.324087      -61.643810      -14.691456
 C         -22.801098      -62.991459      -17.205315
 C         -22.687197      -62.945091      -14.808804
 C         -23.288942      -63.726143      -15.961910
 H         -22.773220      -60.920399      -18.145437
 H         -24.332621      -61.575439      -17.421547
 H         -22.977493      -61.062973      -13.752604
 H         -24.372887      -61.835178      -14.862107
 H         -21.737301      -63.089767      -17.242329
 H         -23.037346      -63.533649      -18.140247
 H         -22.876383      -63.569592      -13.882732
 H         -21.606356      -62.857674      -15.029351
 H         -22.858166      -64.797333      -15.857761
 H         -24.395821      -63.781231      -15.879981
