20
 generated by VMD
 C         -31.258455      -75.550552      -23.519459
 N         -30.890108      -76.047882      -24.532816
 H         -29.400822      -78.645706      -21.949837
 H         -31.346552      -75.150703      -22.452930
 C         -28.474377      -78.149544      -21.880371
 C         -27.519745      -78.322037      -22.987453
 C         -27.878553      -78.040993      -20.536543
 C         -26.460281      -77.277008      -23.050274
 C         -26.797550      -76.957306      -20.600716
 C         -25.819845      -77.121704      -21.719786
 H         -28.150999      -78.396439      -23.977619
 H         -27.152746      -79.345299      -23.037209
 H         -28.679520      -77.910248      -19.769421
 H         -27.540598      -78.995598      -20.314598
 H         -26.892521      -76.363922      -23.452131
 H         -25.614162      -77.417007      -23.733084
 H         -26.187836      -76.773735      -19.657478
 H         -27.469313      -76.050362      -20.826052
 H         -25.175583      -76.178284      -21.696430
 H         -25.278400      -77.977280      -21.475689
