20
 generated by VMD
 C         -58.745029     -160.875488      -56.773899
 N         -58.573658     -160.016327      -57.456440
 H         -58.972851     -163.987900      -54.922047
 H         -58.871578     -161.720459      -56.117912
 C         -59.714855     -163.465134      -54.330917
 C         -59.578312     -163.279221      -52.893326
 C         -61.082306     -163.400711      -54.906696
 C         -60.402481     -162.112427      -52.415493
 C         -61.996609     -162.240936      -54.317783
 C         -61.785099     -162.352295      -52.812153
 H         -58.561886     -163.350510      -52.471970
 H         -59.881664     -164.276413      -52.369289
 H         -61.041443     -163.425522      -55.984829
 H         -61.623306     -164.319031      -54.664978
 H         -60.063179     -161.203156      -52.993191
 H         -60.265430     -162.009232      -51.384136
 H         -62.936829     -162.664490      -54.681232
 H         -61.774223     -161.119431      -54.644909
 H         -62.370514     -161.634476      -52.261566
 H         -62.182465     -163.352737      -52.391975
