20
 generated by VMD
 C         -29.887779      -79.310257      -26.042826
 N         -30.846268      -78.648666      -25.976936
 H         -29.185741      -82.649948      -25.798622
 H         -29.060471      -79.923126      -26.002316
 C         -29.092091      -82.908310      -24.682884
 C         -28.305759      -81.997505      -23.724291
 C         -29.829233      -84.065857      -24.040714
 C         -29.415798      -81.421944      -22.808786
 C         -30.949562      -83.332520      -23.252371
 C         -30.375160      -82.353989      -22.228256
 H         -27.787277      -81.202904      -24.334600
 H         -27.619188      -82.503700      -23.093885
 H         -30.229736      -84.842232      -24.795692
 H         -29.110453      -84.530411      -23.339993
 H         -29.947412      -80.640694      -23.245274
 H         -28.809067      -80.951805      -21.948778
 H         -31.641407      -84.173828      -22.838686
 H         -31.578083      -82.759834      -23.929056
 H         -31.346859      -81.885010      -21.884319
 H         -29.879736      -82.981445      -21.425446
