20
 generated by VMD
 C         -11.004807      -34.123615       -8.511047
 N         -11.134529      -33.218864       -9.101638
 H         -11.554130      -38.017815       -7.989517
 H         -12.236591      -37.242722       -6.557642
 C         -12.364602      -38.036591       -7.310594
 C         -12.499376      -39.444595       -6.591228
 C         -13.688398      -37.737621       -8.071499
 C         -13.641355      -39.353565       -5.541428
 C         -14.922596      -37.779854       -7.162398
 C         -14.961936      -39.092644       -6.384522
 H         -11.570277      -39.751820       -6.069197
 H         -12.771904      -40.138885       -7.436684
 H         -13.663973      -36.723068       -8.486761
 H         -13.935534      -38.508480       -8.796061
 H         -13.516674      -38.489056       -4.886219
 H         -13.674401      -40.359486       -5.003831
 H         -15.817863      -37.591911       -7.723494
 H         -14.839376      -36.948765       -6.457280
 H         -15.788175      -39.081284       -5.717824
 H         -15.157933      -39.918530       -7.094377
