20
 generated by VMD
 C         -22.008469      -52.257034      -11.501943
 N         -21.853189      -52.829544      -10.455768
 H         -19.885666      -52.037571      -14.188004
 H         -22.125813      -51.637157      -12.522508
 C         -18.879198      -52.009895      -13.791218
 C         -17.930649      -51.733555      -14.888867
 C         -18.614731      -51.969868      -12.338038
 C         -16.472176      -52.022476      -14.535418
 C         -17.176857      -51.537788      -12.092794
 C         -16.170250      -52.148853      -13.053905
 H         -18.063850      -50.674812      -15.019228
 H         -18.174303      -52.243076      -15.831985
 H         -19.204697      -51.189346      -11.880404
 H         -18.870371      -52.937588      -11.870655
 H         -15.739012      -51.379543      -15.086639
 H         -16.345572      -53.039207      -14.979864
 H         -16.980322      -51.790859      -11.036329
 H         -17.110380      -50.416050      -12.160879
 H         -15.142001      -51.750237      -12.882108
 H         -16.045792      -53.197159      -12.694807
