20
 generated by VMD
 C         -57.573627     -162.100662      -56.184036
 N         -57.159740     -162.144485      -57.271179
 H         -59.452534     -164.631760      -55.115036
 H         -57.999413     -162.124771      -55.183327
 C         -60.534302     -164.448792      -54.794823
 C         -60.783096     -164.418884      -53.384781
 C         -61.659031     -164.556946      -55.713253
 C         -61.843380     -163.333389      -53.210545
 C         -62.941555     -163.678192      -55.342392
 C         -63.156452     -163.472687      -53.867855
 H         -59.873047     -164.115906      -52.779736
 H         -61.207424     -165.405945      -52.954437
 H         -61.237732     -164.287842      -56.702888
 H         -62.030014     -165.542542      -55.725292
 H         -61.456478     -162.318176      -53.415226
 H         -62.103722     -163.289169      -52.034382
 H         -63.935905     -164.116287      -55.680138
 H         -62.683228     -162.683014      -55.683300
 H         -63.773930     -162.543518      -53.644127
 H         -63.771214     -164.290588      -53.404488
