20
 generated by VMD
 C         -73.933968     -201.384323      -65.546219
 N         -72.951073     -200.989197      -66.013702
 H         -75.846397     -198.411407      -67.381485
 H         -74.724205     -202.012283      -65.300491
 C         -75.183929     -197.788940      -68.033752
 C         -74.868141     -196.273087      -67.968811
 C         -74.467300     -198.594742      -69.129288
 C         -73.517563     -195.919022      -68.452560
 C         -73.384003     -197.836655      -69.933716
 C         -72.557381     -196.966080      -69.112831
 H         -75.057823     -196.049866      -66.841370
 H         -75.694237     -195.731476      -68.497322
 H         -74.008301     -199.340271      -68.516754
 H         -75.075218     -199.074432      -69.824577
 H         -72.904053     -195.466476      -67.608490
 H         -73.705109     -195.147751      -69.195671
 H         -73.857285     -197.158859      -70.709625
 H         -72.723663     -198.547302      -70.439865
 H         -71.993309     -197.644485      -68.345741
 H         -71.832115     -196.381241      -69.641235
