20
 generated by VMD
 C         -11.631962      -41.974239       -6.605844
 N         -11.179816      -41.002201       -6.905398
 H         -14.412752      -40.711449       -8.480169
 H         -15.428303      -40.309521       -9.877728
 C         -15.177259      -41.170494       -9.190386
 C         -16.372618      -41.839695       -8.543464
 C         -14.478229      -42.213211      -10.055241
 C         -17.393276      -42.409836       -9.505417
 C         -15.430452      -42.784931      -11.103868
 C         -16.641504      -43.407829      -10.424674
 H         -16.858955      -41.094162       -7.922563
 H         -15.989240      -42.648968       -7.852674
 H         -13.636263      -41.787457      -10.548116
 H         -14.234954      -43.109119       -9.500156
 H         -17.735571      -41.574795      -10.147834
 H         -18.120436      -42.891823       -8.844698
 H         -14.919361      -43.490841      -11.775738
 H         -15.684504      -41.957489      -11.785017
 H         -17.326649      -43.878326      -11.119245
 H         -16.295200      -44.298431       -9.839170
