20
 generated by VMD
 C         -49.657452     -131.775024      -46.543182
 N         -50.122429     -132.575485      -47.331757
 H         -47.652168     -133.159958      -43.987831
 H         -49.122597     -130.875275      -46.267063
 C         -48.580555     -133.436615      -43.607910
 C         -49.446274     -134.636353      -44.002934
 C         -49.103905     -132.658829      -42.457146
 C         -49.530727     -135.608383      -42.868595
 C         -49.174477     -133.585251      -41.235443
 C         -49.972893     -134.851028      -41.541069
 H         -48.900875     -135.062286      -44.912605
 H         -50.483994     -134.342560      -44.270977
 H         -48.444019     -131.874374      -42.312778
 H         -50.064556     -132.219620      -42.606880
 H         -48.678898     -136.165924      -42.587097
 H         -50.269508     -136.405350      -42.989056
 H         -49.787552     -133.156586      -40.360691
 H         -48.121166     -133.809570      -40.856049
 H         -49.735695     -135.456635      -40.732151
 H         -51.067268     -134.473373      -41.509968
