20
 generated by VMD
 C         -70.235458     -183.096802      -64.057632
 N         -70.026764     -183.339539      -65.166656
 H         -68.226677     -180.153152      -62.723583
 H         -70.539200     -182.854721      -63.039925
 C         -67.714714     -180.477844      -61.767387
 C         -67.884186     -181.882294      -61.240219
 C         -66.942520     -179.509872      -60.901340
 C         -66.457954     -182.450745      -60.900925
 C         -65.571815     -180.091278      -60.360245
 C         -65.802971     -181.575546      -59.875992
 H         -68.546852     -182.434631      -61.955185
 H         -68.425018     -181.867096      -60.331066
 H         -66.906693     -178.443283      -61.303726
 H         -67.504189     -179.304626      -60.032036
 H         -65.826569     -182.354263      -61.793762
 H         -66.326805     -183.508530      -60.689476
 H         -65.162781     -179.354614      -59.628395
 H         -64.746552     -180.128433      -61.120880
 H         -64.736778     -181.857040      -59.508591
 H         -66.463333     -181.612671      -59.019863
