20
 generated by VMD
 C         -57.891598     -168.320908      -55.066887
 N         -56.807610     -168.544739      -54.885448
 H         -61.566120     -167.542679      -55.458118
 H         -58.916653     -168.048569      -55.224773
 C         -62.251308     -166.970261      -56.004181
 C         -62.657536     -167.543747      -57.354641
 C         -63.070702     -165.739456      -55.569347
 C         -64.146416     -167.489059      -57.738464
 C         -64.610222     -165.702255      -55.996979
 C         -64.759842     -166.068726      -57.443932
 H         -62.396332     -168.558990      -57.277336
 H         -62.151608     -167.162491      -58.254063
 H         -62.919254     -165.600067      -54.512920
 H         -62.597958     -164.815689      -56.047745
 H         -64.742645     -168.194489      -57.170033
 H         -64.343262     -167.732559      -58.770226
 H         -64.969208     -164.733337      -55.526608
 H         -65.103027     -166.389832      -55.303013
 H         -65.808594     -166.185226      -57.789169
 H         -64.217613     -165.357086      -58.107090
