20
 generated by VMD
 C         -50.006542     -131.603912      -46.650707
 N         -50.189098     -131.875702      -47.796074
 H         -48.486961     -131.560059      -43.907955
 H         -49.646980     -131.483978      -45.654926
 C         -48.925381     -132.228668      -43.136208
 C         -49.676563     -133.538208      -43.376957
 C         -48.754337     -131.859222      -41.732342
 C         -48.992683     -134.628235      -42.558231
 C         -48.065662     -132.976532      -40.997131
 C         -48.769318     -134.279541      -41.038273
 H         -49.576645     -133.653915      -44.514278
 H         -50.727013     -133.446869      -43.110359
 H         -48.287334     -130.865204      -41.716751
 H         -49.687901     -131.570007      -41.280136
 H         -48.001644     -134.921417      -43.050457
 H         -49.612766     -135.557892      -42.543800
 H         -47.812374     -132.635574      -39.933907
 H         -46.972576     -133.095016      -41.394596
 H         -48.298321     -135.118652      -40.589405
 H         -49.832264     -134.074158      -40.660160
