20
 generated by VMD
 C         -30.365866      -79.572075      -26.016184
 N         -30.940763      -78.591438      -26.138813
 H         -28.521944      -82.501648      -25.735996
 H         -29.884836      -80.501144      -25.614338
 C         -28.916550      -82.369270      -24.762518
 C         -28.061522      -81.689812      -23.612692
 C         -29.997665      -83.318207      -24.240505
 C         -28.943819      -81.284218      -22.337765
 C         -30.819389      -82.798386      -23.036085
 C         -29.907740      -82.348480      -21.906132
 H         -27.445562      -80.798492      -23.823591
 H         -27.314783      -82.371628      -23.329824
 H         -30.731573      -83.506241      -25.109789
 H         -29.576490      -84.337341      -24.048569
 H         -29.593668      -80.419876      -22.669733
 H         -28.326889      -80.869736      -21.513222
 H         -31.514709      -83.666656      -22.688757
 H         -31.472956      -81.991631      -23.353418
 H         -30.521191      -81.906448      -21.043198
 H         -29.563440      -83.256607      -21.354826
