20
 generated by VMD
 C         -42.286770     -120.417381      -34.926937
 N         -42.470833     -121.270760      -34.161011
 H         -43.506710     -120.298050      -37.672199
 H         -41.952709     -119.838417      -35.848476
 C         -43.945381     -119.589760      -38.315060
 C         -43.110760     -119.066162      -39.411198
 C         -45.180412     -118.751060      -38.111794
 C         -43.925812     -118.890114      -40.768215
 C         -46.006428     -118.621567      -39.376472
 C         -45.194035     -118.027550      -40.569210
 H         -42.189747     -119.594681      -39.615662
 H         -42.736996     -118.145363      -39.185097
 H         -45.849731     -119.215836      -37.372520
 H         -44.938011     -117.789528      -37.658943
 H         -44.281502     -119.847366      -41.179863
 H         -43.158424     -118.630379      -41.458073
 H         -46.869064     -117.780739      -39.252964
 H         -46.582638     -119.510681      -39.700180
 H         -45.617123     -118.091660      -41.559425
 H         -45.011509     -116.923874      -40.435215
