20
 generated by VMD
 C         -22.712280      -55.465282      -16.972971
 N         -23.101961      -54.427200      -17.164206
 H         -19.843824      -55.702827      -14.921381
 H         -22.747852      -56.530579      -16.698536
 C         -19.924723      -56.820023      -14.675794
 C         -20.619150      -57.122719      -13.380090
 C         -18.835892      -57.673031      -15.051494
 C         -20.955511      -58.586613      -13.229606
 C         -19.123880      -59.121792      -14.944526
 C         -19.735996      -59.445351      -13.583443
 H         -21.578852      -56.658432      -13.538218
 H         -20.180637      -56.702579      -12.502184
 H         -18.627539      -57.469246      -16.051220
 H         -17.992395      -57.383469      -14.390577
 H         -21.719315      -58.944290      -13.886652
 H         -21.283905      -58.764385      -12.198783
 H         -18.250412      -59.737148      -15.075259
 H         -19.773958      -59.515915      -15.750565
 H         -20.160660      -60.466103      -13.542649
 H         -18.951054      -59.354767      -12.765563
