20
 generated by VMD
 C         -40.506756      -99.859650      -29.315796
 N         -39.873608     -100.161858      -28.416298
 H         -37.455318      -98.656990      -30.618752
 H         -41.041744      -99.647156      -30.297489
 C         -36.422832      -98.990860      -30.792540
 C         -35.835365      -99.245064      -32.164322
 C         -35.416164      -98.899818      -29.725552
 C         -34.786659      -98.118835      -32.419647
 C         -34.254742      -97.825287      -29.999645
 C         -33.677094      -98.128456      -31.315519
 H         -36.541576      -99.216797      -33.045288
 H         -35.365414     -100.226135      -32.083569
 H         -35.954357      -98.675659      -28.751198
 H         -34.855019      -99.828613      -29.591091
 H         -35.350849      -97.215485      -32.395573
 H         -34.459400      -98.338974      -33.442909
 H         -33.521442      -97.952881      -29.164156
 H         -34.641987      -96.850281      -30.010859
 H         -32.918488      -97.474472      -31.599007
 H         -33.243027      -99.187538      -31.292719
