20
 generated by VMD
 C         -70.058197     -182.927063      -65.964310
 N         -71.119728     -183.280151      -65.650848
 H         -68.118637     -182.673950      -63.024185
 H         -69.107597     -182.541809      -66.175156
 C         -67.460167     -182.502197      -62.192429
 C         -67.643959     -183.381729      -60.985191
 C         -67.087105     -181.075989      -61.920948
 C         -66.641548     -183.155670      -59.870182
 C         -66.229683     -180.836044      -60.658928
 C         -66.758049     -181.609528      -59.395378
 H         -67.565765     -184.456879      -61.311172
 H         -68.689018     -183.326141      -60.790028
 H         -66.588852     -180.794403      -62.865215
 H         -67.866211     -180.374252      -61.913265
 H         -65.627739     -183.305984      -60.372204
 H         -66.799477     -183.732529      -58.987087
 H         -66.139870     -179.773911      -60.503944
 H         -65.205688     -181.185822      -60.937412
 H         -66.268272     -181.314789      -58.481876
 H         -67.756241     -181.230972      -59.213974
