20
 generated by VMD
 C         -68.168930     -179.280334      -58.357738
 N         -67.250893     -178.817825      -57.820488
 H         -66.078194     -176.593216      -59.182579
 H         -69.002327     -179.784531      -58.884892
 C         -65.408691     -175.776306      -59.407425
 C         -65.983559     -174.777130      -60.426979
 C         -64.010567     -175.943710      -59.690067
 C         -65.305626     -173.385635      -60.273754
 C         -63.211357     -174.638977      -59.664772
 C         -63.793186     -173.633713      -60.719788
 H         -67.096062     -174.676529      -60.397610
 H         -65.868622     -175.294678      -61.310730
 H         -63.578762     -176.599533      -58.882202
 H         -63.806190     -176.444778      -60.619518
 H         -65.224159     -173.074661      -59.153561
 H         -65.646843     -172.577957      -60.975468
 H         -62.227821     -174.882828      -60.020775
 H         -63.131073     -174.124969      -58.629990
 H         -63.269993     -172.651962      -60.517750
 H         -63.493504     -173.906342      -61.683655
