20
 generated by VMD
 C         -17.835619      -48.410717       -6.944324
 N         -17.293461      -47.576656       -6.430696
 H         -16.533691      -48.579960      -10.391474
 H         -15.774962      -48.877308      -12.052989
 C         -16.323622      -48.165981      -11.414558
 C         -15.515444      -46.830578      -11.313066
 C         -17.637537      -47.908321      -12.116673
 C         -15.463305      -45.974865      -12.572240
 C         -17.447952      -47.149014      -13.420679
 C         -16.801739      -45.797283      -13.282978
 H         -14.464566      -46.988453      -11.030027
 H         -16.106052      -46.228859      -10.621290
 H         -18.034988      -48.862354      -12.436088
 H         -18.366661      -47.466175      -11.441104
 H         -14.761074      -46.443272      -13.275747
 H         -15.017582      -45.012634      -12.359154
 H         -18.428728      -47.012108      -13.910535
 H         -16.940933      -47.861298      -14.025898
 H         -16.640869      -45.348003      -14.276233
 H         -17.463770      -45.036915      -12.779966
