20
 generated by VMD
 C         -32.631260      -92.956726      -25.753996
 N         -32.742577      -94.118347      -25.635281
 H         -33.658577      -94.947746      -28.936604
 H         -32.679035      -91.848801      -25.846056
 C         -34.169014      -94.029961      -29.080910
 C         -35.344875      -93.580498      -28.380642
 C         -33.781502      -93.289932      -30.242853
 C         -35.135201      -92.044586      -27.947203
 C         -33.644024      -91.860641      -29.870914
 C         -34.671154      -91.096115      -29.023315
 H         -35.537445      -94.107254      -27.405529
 H         -36.320534      -93.686661      -28.911165
 H         -32.861984      -93.743584      -30.689745
 H         -34.573357      -93.246994      -30.965851
 H         -34.457020      -92.034744      -27.120039
 H         -36.178246      -91.803596      -27.513920
 H         -33.359375      -91.223335      -30.725239
 H         -32.724331      -91.816322      -29.209217
 H         -34.190147      -90.375252      -28.358974
 H         -35.460258      -90.734932      -29.637417
