20
 generated by VMD
 C         -77.394569     -202.876572      -68.927551
 N         -77.514610     -203.770615      -68.258865
 H         -75.280373     -201.669220      -67.391640
 H         -77.173645     -201.890350      -69.347778
 C         -74.799812     -201.202576      -68.190086
 C         -75.210487     -199.838181      -68.567032
 C         -73.727707     -201.947937      -68.941475
 C         -74.442589     -199.255264      -69.694283
 C         -73.171371     -201.342239      -70.184776
 C         -74.049156     -200.220062      -70.761505
 H         -75.061966     -199.149857      -67.648918
 H         -76.302124     -199.795700      -68.672745
 H         -72.930862     -202.035004      -68.235130
 H         -74.197975     -202.892456      -69.216805
 H         -73.550629     -198.741425      -69.477409
 H         -75.150177     -198.606857      -70.226753
 H         -72.913132     -202.133057      -70.995827
 H         -72.106903     -200.975510      -69.872871
 H         -73.548706     -199.608185      -71.600487
 H         -74.963631     -200.536530      -71.188271
