20
 generated by VMD
 C          -1.622440      -16.858103        2.138213
 N          -1.553685      -17.466003        3.067815
 H          -5.372546      -16.799513        0.839409
 H          -4.772012      -17.911882       -0.351580
 C          -5.706723      -17.434225       -0.006436
 C          -6.418355      -16.575832       -1.006925
 C          -6.679014      -18.447445        0.660186
 C          -7.060014      -17.497131       -2.053719
 C          -7.509211      -19.320345       -0.277899
 C          -8.031049      -18.482428       -1.440365
 H          -5.783319      -15.911239       -1.556551
 H          -7.200078      -15.984917       -0.470473
 H          -6.013620      -19.083052        1.343802
 H          -7.344728      -17.733692        1.277260
 H          -6.281952      -18.000872       -2.550037
 H          -7.610360      -16.868137       -2.728331
 H          -8.285633      -19.740623        0.347481
 H          -6.823124      -20.121435       -0.681914
 H          -8.495111      -19.131250       -2.212502
 H          -8.858503      -17.866264       -1.052625
