20
 generated by VMD
 C         -29.327688      -73.481148      -19.318233
 N         -29.769098      -74.511681      -19.050753
 H         -25.964798      -73.153030      -18.860722
 H         -28.988916      -72.438492      -19.719635
 C         -25.532114      -72.982048      -19.785215
 C         -24.924629      -74.033936      -20.690937
 C         -25.575018      -71.624245      -20.401907
 C         -25.584839      -74.024155      -22.220175
 C         -26.206491      -71.640602      -21.833912
 C         -25.699343      -72.619942      -22.830122
 H         -24.863420      -75.049980      -20.315464
 H         -23.869295      -73.782555      -20.855247
 H         -26.103416      -70.804001      -19.934258
 H         -24.531404      -71.355194      -20.456636
 H         -26.591972      -74.375252      -22.003908
 H         -25.118237      -74.687149      -22.958223
 H         -26.315147      -70.549622      -22.078865
 H         -27.271688      -71.932182      -21.481152
 H         -26.423796      -72.638184      -23.665552
 H         -24.785662      -72.309631      -23.318043
