20
 generated by VMD
 C         -49.717827     -131.837448      -46.625961
 N         -50.071159     -132.606842      -47.426888
 H         -48.060120     -132.590530      -44.169300
 H         -49.528126     -131.510162      -45.580795
 C         -48.840763     -133.058060      -43.541794
 C         -49.540150     -134.294388      -43.961643
 C         -48.969006     -132.452225      -42.149830
 C         -49.390648     -135.384094      -42.849804
 C         -48.897472     -133.658890      -41.138386
 C         -49.844490     -134.756790      -41.508469
 H         -48.946980     -134.684402      -44.843391
 H         -50.601685     -134.236450      -44.302193
 H         -48.085381     -131.767944      -41.949673
 H         -49.901657     -131.874680      -42.129505
 H         -48.366287     -135.791901      -42.874619
 H         -50.006725     -136.235428      -43.205093
 H         -49.103001     -133.286530      -40.148418
 H         -47.844597     -133.992142      -41.040344
 H         -49.680565     -135.614792      -40.677086
 H         -50.853546     -134.365463      -41.649128
