20
 generated by VMD
 C         -49.507038     -127.669182      -39.900543
 N         -50.476627     -127.583870      -40.501659
 H         -47.489658     -127.225784      -41.938667
 H         -48.725677     -127.792976      -39.146671
 C         -46.641254     -126.595978      -41.559048
 C         -45.729977     -127.214722      -40.569050
 C         -46.717888     -125.187141      -41.843925
 C         -44.423836     -126.517990      -40.530991
 C         -45.342110     -124.578827      -41.778999
 C         -44.715176     -124.976517      -40.368946
 H         -45.676315     -128.260300      -40.849461
 H         -46.310394     -127.321220      -39.593632
 H         -47.096291     -125.065796      -42.856464
 H         -47.395309     -124.621429      -41.297924
 H         -43.829662     -126.559410      -41.464069
 H         -43.752342     -126.890678      -39.728745
 H         -45.507526     -123.420921      -41.801682
 H         -44.571335     -124.818436      -42.529377
 H         -43.738667     -124.486687      -40.230293
 H         -45.348621     -124.952492      -39.527866
