20
 generated by VMD
 C         -67.816620     -185.807510      -67.274117
 N         -68.764977     -186.299316      -67.722435
 H         -68.518250     -187.917801      -64.614464
 H         -66.905876     -185.349808      -66.963669
 C         -69.303299     -187.674576      -63.880585
 C         -68.838211     -186.858368      -62.789421
 C         -70.729546     -188.151123      -63.951710
 C         -69.498955     -187.063965      -61.399292
 C         -71.317215     -188.400314      -62.594803
 C         -71.128456     -187.149033      -61.678230
 H         -69.046432     -185.812103      -63.091652
 H         -67.736610     -186.755081      -62.794842
 H         -71.399590     -187.436157      -64.488731
 H         -70.777534     -189.103180      -64.558105
 H         -69.365074     -186.271179      -60.684322
 H         -69.105637     -188.069336      -61.033100
 H         -70.812759     -189.314713      -62.213268
 H         -72.394249     -188.617630      -62.628277
 H         -71.458916     -186.174225      -62.197750
 H         -71.588425     -187.357056      -60.717857
