20
 generated by VMD
 C         -11.449760      -27.283627       -1.320451
 N         -12.231885      -26.493624       -1.498798
 H         -10.487401      -26.011793       -3.993538
 H          -9.259601      -25.697994       -5.216743
 C          -9.385861      -26.082159       -4.183901
 C          -8.851426      -27.510784       -4.180116
 C          -8.703213      -25.035347       -3.286436
 C          -7.351164      -27.576588       -4.221341
 C          -7.148863      -25.224461       -3.329867
 C          -6.709621      -26.678783       -3.172527
 H          -9.270511      -28.055317       -4.988824
 H          -9.191183      -27.861584       -3.190677
 H          -9.097802      -24.004143       -3.420106
 H          -8.917347      -25.305517       -2.270565
 H          -7.005955      -27.105801       -5.203176
 H          -7.022190      -28.649481       -4.129061
 H          -6.636201      -24.624411       -2.527610
 H          -6.736446      -25.018164       -4.327610
 H          -5.623833      -26.778915       -3.239608
 H          -7.105111      -27.059189       -2.221095
