20
 generated by VMD
 C         -66.747719     -190.796829      -66.404129
 N         -67.857643     -190.452179      -66.529800
 H         -70.551445     -190.527054      -66.553513
 H         -65.763977     -191.332840      -66.436180
 C         -71.175117     -190.269211      -65.694008
 C         -72.263260     -191.203293      -65.461456
 C         -70.541862     -189.393387      -64.672951
 C         -73.342529     -190.701523      -64.449249
 C         -71.623756     -188.756546      -63.760338
 C         -72.750908     -189.750900      -63.249527
 H         -71.905769     -192.144409      -65.214592
 H         -72.826248     -191.394043      -66.429031
 H         -69.936874     -189.903397      -64.003860
 H         -70.053360     -188.477921      -65.012138
 H         -73.775078     -191.618546      -63.996841
 H         -74.116310     -190.069839      -65.029350
 H         -72.099121     -187.955322      -64.347046
 H         -71.144997     -188.346939      -62.903732
 H         -72.293205     -190.228989      -62.476349
 H         -73.693512     -189.286362      -62.785721
