20
 generated by VMD
 C         -79.076698     -208.206451      -75.695923
 N         -78.314537     -207.425079      -75.372963
 H         -78.819252     -210.336411      -73.624229
 H         -79.695824     -208.915054      -76.208916
 C         -78.610252     -210.080399      -72.563911
 C         -77.357536     -209.182190      -72.462646
 C         -78.942390     -211.137207      -71.477554
 C         -77.107521     -208.844009      -70.949280
 C         -78.475845     -210.782425      -70.051620
 C         -77.100151     -210.046753      -70.072609
 H         -77.358856     -208.265594      -73.037880
 H         -76.551163     -209.756454      -72.850227
 H         -80.009125     -211.381729      -71.353310
 H         -78.396217     -211.991531      -71.806404
 H         -77.878464     -208.254028      -70.507790
 H         -76.199387     -208.262192      -70.877144
 H         -78.719833     -211.501633      -69.350235
 H         -79.155884     -209.853790      -69.788895
 H         -77.160843     -209.751266      -69.023102
 H         -76.200905     -210.624710      -70.286926
