20
 generated by VMD
 C         -79.739296     -206.932434      -75.854996
 N         -80.162148     -207.211273      -74.832787
 H         -77.173401     -208.141312      -73.083893
 H         -79.464310     -206.792099      -76.845741
 C         -76.939659     -208.548569      -72.145660
 C         -75.642670     -208.208496      -71.342316
 C         -77.848518     -209.584305      -71.625923
 C         -76.086311     -207.881409      -69.931313
 C         -78.138077     -209.314468      -70.156013
 C         -77.006546     -208.925919      -69.318970
 H         -75.329590     -207.304657      -71.882385
 H         -74.847572     -208.981903      -71.465775
 H         -78.809669     -209.672348      -72.191093
 H         -77.385101     -210.591293      -71.716423
 H         -76.649742     -206.918655      -70.061485
 H         -75.150894     -207.675003      -69.378212
 H         -78.553223     -210.225449      -69.649582
 H         -78.910713     -208.550461      -70.094589
 H         -77.546783     -208.610016      -68.468346
 H         -76.383064     -209.783066      -68.906288
