20
 generated by VMD
 C         -38.350803     -112.856522      -36.284615
 N         -37.268219     -112.544640      -36.498554
 H         -41.224007     -114.832649      -34.666649
 H         -39.331322     -113.118179      -36.023712
 C         -42.146034     -114.663490      -35.339066
 C         -42.100990     -114.742310      -36.817173
 C         -43.416782     -113.989296      -34.858593
 C         -43.435604     -114.874321      -37.578941
 C         -44.689896     -114.367317      -35.535599
 C         -44.470528     -113.967926      -36.982948
 H         -41.510685     -115.625549      -37.280712
 H         -41.565929     -113.836670      -37.228851
 H         -43.457298     -114.376038      -33.816452
 H         -43.232246     -112.946411      -34.653473
 H         -43.822956     -115.947052      -37.618671
 H         -43.296898     -114.518600      -38.604481
 H         -45.710384     -113.919647      -35.279995
 H         -44.943501     -115.463722      -35.260960
 H         -45.375664     -114.026962      -37.565281
 H         -44.063633     -112.983719      -37.122700
