20
 generated by VMD
 C         -59.674156     -169.450623      -55.696018
 N         -59.771927     -168.531052      -54.930771
 H         -62.948914     -170.256714      -56.246655
 H         -59.471436     -170.221085      -56.441357
 C         -63.286087     -169.326614      -56.677376
 C         -62.696377     -168.841263      -58.047791
 C         -63.309464     -168.131424      -55.704853
 C         -63.554344     -167.651749      -58.568314
 C         -64.095970     -166.984253      -56.264458
 C         -63.509171     -166.532761      -57.583530
 H         -62.821621     -169.657150      -58.808826
 H         -61.582851     -168.497772      -57.983677
 H         -63.727230     -168.576538      -54.730488
 H         -62.226379     -167.953506      -55.538540
 H         -64.608391     -167.843765      -58.722042
 H         -63.165398     -167.357666      -59.523659
 H         -64.118896     -166.049866      -55.554134
 H         -65.236000     -167.246582      -56.541264
 H         -64.002319     -165.654922      -57.883549
 H         -62.491882     -166.363617      -57.317856
