20
 generated by VMD
 C         -19.145842      -61.384617      -16.090569
 N         -19.966047      -60.787712      -16.644321
 H         -21.814941      -63.323067      -18.098648
 H         -18.347933      -62.080185      -15.653155
 C         -22.859842      -63.201458      -17.891405
 C         -24.089409      -63.502800      -18.738094
 C         -23.069981      -63.482761      -16.450907
 C         -24.751923      -64.795380      -18.343649
 C         -23.841125      -64.720512      -15.962662
 C         -25.091894      -64.822021      -16.852085
 H         -23.801588      -63.589466      -19.810431
 H         -24.852926      -62.671162      -18.774710
 H         -22.018894      -63.447140      -16.021563
 H         -23.620661      -62.548145      -16.097683
 H         -24.119390      -65.698174      -18.400229
 H         -25.702021      -65.103622      -18.960512
 H         -24.091928      -64.633919      -14.922496
 H         -23.197001      -65.581131      -15.986868
 H         -25.746376      -65.668816      -16.718559
 H         -25.854744      -64.026382      -16.566853
