20
 generated by VMD
 C         -69.116219     -180.426422      -60.800743
 N         -69.629524     -181.389191      -60.374439
 H         -67.362724     -177.800049      -59.649521
 H         -68.628593     -179.563110      -61.283150
 C         -66.379051     -177.559906      -59.861320
 C         -65.918190     -177.595993      -61.317921
 C         -65.305237     -177.173965      -58.794132
 C         -64.945709     -176.384125      -61.632889
 C         -64.378792     -176.088852      -59.270836
 C         -63.803120     -176.146942      -60.670830
 H         -66.605698     -177.803024      -62.132542
 H         -65.235138     -178.463806      -61.370705
 H         -65.856476     -176.748489      -57.975285
 H         -64.765038     -178.108200      -58.462673
 H         -65.619614     -175.546494      -61.756752
 H         -64.525032     -176.743591      -62.633759
 H         -63.573147     -176.173706      -58.540558
 H         -64.958038     -175.194077      -59.155155
 H         -63.214016     -175.324738      -61.049267
 H         -63.120304     -177.030731      -60.638397
