20
 generated by VMD
 C         -69.603012     -180.948883      -62.215168
 N         -70.292358     -180.027100      -62.402199
 H         -66.824005     -181.730301      -60.632957
 H         -69.019470     -181.767761      -61.927528
 C         -66.374886     -180.677155      -60.577240
 C         -64.906479     -180.453690      -60.399059
 C         -67.206154     -179.458511      -60.229202
 C         -64.436554     -179.226974      -61.059132
 C         -66.751068     -178.125641      -60.812439
 C         -65.184822     -177.980225      -60.518013
 H         -64.455696     -181.346695      -60.843689
 H         -64.686432     -180.347931      -59.353512
 H         -68.302856     -179.411392      -60.389347
 H         -67.101105     -179.319885      -59.101215
 H         -64.596619     -179.206512      -62.099289
 H         -63.362514     -179.170517      -61.117325
 H         -67.368866     -177.273911      -60.508770
 H         -66.815262     -178.179352      -61.914158
 H         -64.984398     -176.952942      -61.027023
 H         -64.946739     -177.781265      -59.464138
