20
 generated by VMD
 C         -78.236099     -204.292023      -69.338402
 N         -79.073944     -203.798965      -70.010513
 H         -76.066536     -202.665344      -67.748947
 H         -77.438545     -204.696320      -68.740250
 C         -75.269173     -202.231873      -68.444664
 C         -75.460442     -200.876282      -69.070366
 C         -74.236153     -203.033295      -69.097160
 C         -74.841537     -200.934555      -70.571144
 C         -72.965172     -202.195816      -69.494347
 C         -73.353256     -201.077972      -70.606636
 H         -74.940552     -200.057983      -68.516273
 H         -76.518486     -200.708740      -69.086967
 H         -74.035095     -203.854691      -68.327789
 H         -74.677368     -203.505600      -69.961121
 H         -75.063408     -199.958771      -71.090942
 H         -75.354073     -201.654449      -71.224510
 H         -72.107918     -202.829987      -69.733452
 H         -72.511917     -201.720413      -68.612259
 H         -72.815979     -200.235443      -70.549187
 H         -73.141075     -201.544434      -71.567696
