20
 generated by VMD
 C         -20.350313      -57.297287      -16.790073
 N         -19.282259      -56.845661      -16.994644
 H         -22.491327      -59.417046      -17.359169
 H         -21.381102      -57.770763      -16.740917
 C         -22.382557      -60.302933      -16.743511
 C         -23.616966      -60.974083      -16.118580
 C         -21.148495      -61.018188      -16.530682
 C         -23.447853      -61.351395      -14.631859
 C         -21.288858      -62.267803      -15.607175
 C         -22.127920      -62.061211      -14.357392
 H         -23.819422      -61.879578      -16.705212
 H         -24.507057      -60.275906      -16.233829
 H         -20.665493      -61.167919      -17.476805
 H         -20.577768      -60.269997      -15.960413
 H         -24.240686      -62.025932      -14.351047
 H         -23.523815      -60.487186      -14.019859
 H         -20.294157      -62.580410      -15.327792
 H         -21.623840      -63.128082      -16.194384
 H         -22.212088      -62.965611      -13.774064
 H         -21.515348      -61.266369      -13.963332
