20
 generated by VMD
 C         -29.149387      -88.016251      -25.044621
 N         -28.811989      -87.843864      -26.107035
 H         -31.531431      -90.276421      -27.195677
 H         -29.513395      -88.302483      -23.990170
 C         -32.364326      -89.548737      -27.191202
 C         -32.769199      -89.221237      -25.811028
 C         -33.170670      -89.211380      -28.349150
 C         -33.645256      -88.033012      -25.589636
 C         -34.089729      -88.026924      -28.085430
 C         -34.703773      -87.896935      -26.663755
 H         -31.965942      -89.215950      -25.091427
 H         -33.251614      -90.172173      -25.366014
 H         -32.687771      -88.942017      -29.286501
 H         -33.772438      -90.126152      -28.521851
 H         -32.935089      -87.134079      -25.566669
 H         -34.158340      -88.173981      -24.651560
 H         -34.906746      -88.133957      -28.870907
 H         -33.420059      -87.224297      -28.368114
 H         -35.302605      -86.870705      -26.518959
 H         -35.529926      -88.694878      -26.475389
