20
 generated by VMD
 C         -37.586727      -98.571304      -27.508707
 N         -37.655476      -98.390991      -26.358307
 H         -36.739773      -96.471634      -29.383162
 H         -37.444218      -98.839584      -28.501802
 C         -35.702690      -96.524384      -29.707771
 C         -35.304058      -97.397476      -30.886625
 C         -34.713047      -95.704765      -29.120562
 C         -34.971165      -96.360023      -31.959269
 C         -34.096077      -94.779106      -30.085375
 C         -33.808212      -95.388802      -31.574430
 H         -36.134007      -97.896927      -31.345259
 H         -34.534851      -98.224350      -30.746302
 H         -35.239216      -95.398560      -28.256544
 H         -33.872543      -96.322029      -28.829681
 H         -35.751255      -95.715866      -32.256489
 H         -34.584728      -96.926994      -32.813515
 H         -33.167973      -94.326637      -29.621460
 H         -34.726528      -93.925896      -30.211411
 H         -33.625790      -94.637383      -32.252140
 H         -32.850994      -96.019699      -31.314299
