20
 generated by VMD
 C         -30.874743      -78.198723      -26.103306
 N         -31.786655      -77.584328      -25.805956
 H         -29.277695      -77.760765      -22.913652
 H         -30.039165      -78.901108      -26.175367
 C         -28.905630      -78.752007      -22.876137
 C         -27.415136      -78.917595      -23.150928
 C         -29.629612      -79.932465      -22.372684
 C         -26.671087      -79.758156      -22.076630
 C         -28.900738      -80.640617      -21.270195
 C         -27.485807      -81.104103      -21.888437
 H         -26.942335      -77.994385      -23.193071
 H         -27.397078      -79.364807      -24.103945
 H         -30.619072      -79.565193      -21.946743
 H         -29.928717      -80.527054      -23.263855
 H         -26.646496      -79.211159      -21.114737
 H         -25.659857      -79.970680      -22.291904
 H         -29.486139      -81.593452      -20.947617
 H         -28.821043      -79.854576      -20.375515
 H         -26.985191      -81.754761      -21.135918
 H         -27.589781      -81.668724      -22.812378
