20
 generated by VMD
 C         -21.580212      -65.519196      -17.118382
 N         -20.875565      -65.974060      -16.330162
 H         -24.019243      -63.729347      -18.125872
 H         -22.266527      -65.470200      -17.906942
 C         -24.253746      -64.801964      -18.223700
 C         -24.562445      -65.138382      -19.662949
 C         -25.262333      -65.523094      -17.329437
 C         -24.271996      -66.633492      -19.876705
 C         -24.925106      -67.037979      -17.435867
 C         -25.141457      -67.584389      -18.903288
 H         -23.932478      -64.523811      -20.292360
 H         -25.660179      -65.033195      -20.020458
 H         -25.240404      -65.102371      -16.210030
 H         -26.292574      -65.228050      -17.660660
 H         -23.255039      -66.880287      -19.677341
 H         -24.505674      -66.873154      -20.902145
 H         -25.542694      -67.693756      -16.869061
 H         -23.910263      -67.211273      -17.101107
 H         -24.918995      -68.616318      -18.911612
 H         -26.226728      -67.427216      -19.047421
