20
 generated by VMD
 C         -11.410933      -33.564693       -9.152005
 N         -10.490912      -33.092842       -8.775189
 H         -12.287059      -35.047058       -7.411357
 H         -12.832178      -35.289280       -5.721111
 C         -12.620462      -35.784649       -6.701095
 C         -11.686927      -36.914246       -6.421920
 C         -13.980817      -36.278667       -7.141397
 C         -12.203653      -37.838696       -5.331732
 C         -14.546339      -37.119560       -5.968203
 C         -13.641580      -38.287525       -5.592040
 H         -10.666892      -36.549438       -6.224969
 H         -11.594736      -37.509148       -7.322706
 H         -14.711478      -35.532635       -7.444744
 H         -13.919736      -36.897987       -8.083766
 H         -12.098237      -37.316414       -4.368246
 H         -11.470900      -38.680019       -5.314467
 H         -15.523470      -37.410709       -6.128291
 H         -14.652766      -36.456894       -5.056706
 H         -14.074207      -38.759884       -4.680741
 H         -13.678022      -39.072563       -6.324464
