20
 generated by VMD
 C         -10.899872      -35.264236       -9.292581
 N         -10.367583      -35.086479       -8.331717
 H         -12.649827      -36.858284       -6.817046
 H         -13.990263      -37.357723       -5.959991
 C         -13.409316      -37.644154       -6.812573
 C         -12.755172      -39.045620       -6.671556
 C         -14.459974      -37.677696       -7.949815
 C         -13.777256      -40.185577       -6.453734
 C         -15.501111      -38.777451       -7.697646
 C         -14.903327      -40.193970       -7.446562
 H         -12.082383      -38.996857       -5.838452
 H         -12.177159      -39.309669       -7.509785
 H         -15.034412      -36.712769       -8.038118
 H         -14.014812      -37.830708       -8.911363
 H         -14.181612      -40.083099       -5.430017
 H         -13.285841      -41.136539       -6.482350
 H         -16.222075      -38.852329       -8.613669
 H         -16.112020      -38.458359       -6.872923
 H         -15.663861      -40.977631       -7.162938
 H         -14.451404      -40.483353       -8.404351
