20
 generated by VMD
 C         -59.711853     -157.585129      -56.764671
 N         -59.127163     -158.626785      -56.729794
 H         -60.352093     -157.777100      -53.434891
 H         -60.230488     -156.655212      -56.571350
 C         -59.823246     -158.411179      -52.742897
 C         -58.410576     -158.300659      -52.273800
 C         -60.334404     -159.831436      -52.966671
 C         -57.847275     -159.366379      -51.266895
 C         -59.632511     -160.913055      -52.131035
 C         -58.154957     -160.679245      -51.868656
 H         -58.227741     -157.230499      -51.967091
 H         -57.750961     -158.320435      -53.178394
 H         -61.402756     -159.851532      -52.665226
 H         -60.201649     -160.102676      -53.963680
 H         -58.323154     -159.156204      -50.385532
 H         -56.695568     -159.399765      -51.218887
 H         -59.559902     -161.836121      -52.672962
 H         -60.176250     -161.057190      -51.186096
 H         -57.878681     -161.487350      -51.275738
 H         -57.722710     -160.662186      -52.875046
