20
 generated by VMD
 C         -67.035248     -189.690079      -66.723961
 N         -66.596733     -189.095032      -67.633209
 H         -69.342873     -189.708084      -64.743095
 H         -67.541008     -190.181290      -65.876572
 C         -70.206856     -189.462997      -64.119682
 C         -71.315659     -190.464127      -63.879078
 C         -70.414833     -187.970840      -63.682343
 C         -72.631325     -189.802628      -64.117752
 C         -71.878143     -187.529694      -63.531410
 C         -72.826607     -188.645309      -63.266987
 H         -71.166466     -190.708176      -62.802914
 H         -71.261147     -191.398773      -64.538986
 H         -69.953979     -187.778320      -62.645023
 H         -69.788086     -187.201187      -64.257545
 H         -73.437744     -190.550964      -63.883633
 H         -72.665039     -189.482101      -65.141800
 H         -72.086357     -186.967300      -64.445038
 H         -71.983429     -186.733398      -62.778778
 H         -72.872299     -188.835953      -62.169933
 H         -73.897438     -188.237381      -63.546757
