20
 generated by VMD
 C         -12.033673      -39.570919       -6.780205
 N         -10.908348      -39.414112       -6.746928
 H         -12.883579      -41.025963       -9.157537
 H         -14.301530      -39.886883       -8.818519
 C         -14.038159      -40.945984       -9.039238
 C         -14.660091      -41.862286       -8.023008
 C         -14.545443      -41.219322      -10.482981
 C         -16.200867      -41.685459       -8.120356
 C         -16.136595      -41.348732      -10.589323
 C         -16.691542      -42.209927       -9.461340
 H         -14.373635      -41.540737       -6.979629
 H         -14.425117      -42.930965       -8.249036
 H         -14.274570      -40.411572      -11.165774
 H         -14.155414      -42.190231      -10.788513
 H         -16.414873      -40.620663       -8.095195
 H         -16.706490      -42.282063       -7.295730
 H         -16.420662      -41.565033      -11.624743
 H         -16.516029      -40.287666      -10.464807
 H         -17.792179      -42.183430       -9.466806
 H         -16.450497      -43.286064       -9.480537
