20
 generated by VMD
 C         -61.007729     -172.270203      -55.199192
 N         -60.226028     -173.053268      -54.979103
 H         -62.230106     -170.660126      -57.324165
 H         -61.585392     -171.423309      -55.503010
 C         -63.052135     -169.907532      -57.324314
 C         -62.637661     -168.438004      -57.512600
 C         -64.570198     -170.128372      -57.326565
 C         -63.374241     -167.859970      -58.821701
 C         -65.143951     -169.448898      -58.600544
 C         -64.858681     -167.987549      -58.733536
 H         -61.579082     -168.328278      -57.555233
 H         -63.049046     -167.835968      -56.616550
 H         -64.883583     -171.133118      -57.350449
 H         -65.102554     -169.513687      -56.593029
 H         -62.849152     -168.394058      -59.686989
 H         -63.148125     -166.814590      -58.933517
 H         -66.244965     -169.585815      -58.507908
 H         -64.694580     -170.051956      -59.446388
 H         -65.307648     -167.666794      -59.660278
 H         -65.422691     -167.521362      -57.939220
