20
 generated by VMD
 C          -1.512541      -17.198898        2.056949
 N          -1.585809      -17.314203        3.165127
 H          -5.285954      -17.100792        0.837784
 H          -4.962811      -18.382132       -0.403117
 C          -5.761165      -17.716864        0.064522
 C          -6.374870      -16.759113       -0.961388
 C          -6.935041      -18.546732        0.649905
 C          -7.039251      -17.547474       -2.160102
 C          -7.562053      -19.357796       -0.470211
 C          -8.098042      -18.513489       -1.563213
 H          -5.639529      -16.032070       -1.418028
 H          -7.105698      -16.130653       -0.469047
 H          -6.632733      -19.144936        1.484536
 H          -7.627715      -17.874327        1.119634
 H          -6.205035      -18.121012       -2.727813
 H          -7.530150      -16.841963       -2.849335
 H          -8.418962      -19.822598        0.031165
 H          -6.940221      -20.140642       -0.850870
 H          -8.436208      -19.175304       -2.339124
 H          -8.942738      -17.884724       -1.219889
