20
 generated by VMD
 C         -11.732479      -41.696228       -6.142069
 N         -10.838158      -41.748783       -6.803228
 H         -14.578619      -41.348663       -8.475443
 H         -15.315223      -40.665569       -9.874644
 C         -15.264564      -41.609192       -9.263981
 C         -16.622869      -42.095787       -8.735921
 C         -14.615409      -42.720753      -10.102339
 C         -17.592726      -42.597973       -9.875733
 C         -15.537653      -43.067936      -11.310051
 C         -16.934782      -43.523495      -10.871855
 H         -17.151600      -41.224228       -8.228151
 H         -16.468683      -42.930702       -8.031229
 H         -13.625413      -42.414677      -10.575338
 H         -14.398299      -43.612843       -9.494008
 H         -17.997129      -41.659275      -10.248018
 H         -18.516420      -43.061035       -9.507504
 H         -15.062138      -43.777637      -11.974092
 H         -15.693607      -42.175617      -11.915009
 H         -17.495399      -43.500458      -11.808022
 H         -16.993441      -44.504803      -10.476919
