20
 generated by VMD
 C         -28.463989      -74.034843      -18.732056
 N         -29.444479      -73.623154      -18.242540
 H         -25.177536      -72.452934      -18.828197
 H         -27.653481      -74.395500      -19.530941
 C         -25.525652      -72.384857      -19.817007
 C         -24.889721      -73.457535      -20.612038
 C         -25.862400      -71.060326      -20.383156
 C         -25.472544      -73.540291      -22.143661
 C         -26.210751      -71.021889      -21.988235
 C         -25.496412      -72.182953      -22.828228
 H         -24.857920      -74.551453      -20.144283
 H         -23.864073      -73.191360      -20.789221
 H         -26.714087      -70.587502      -19.894791
 H         -24.991751      -70.396660      -20.296541
 H         -26.446939      -73.999550      -22.042934
 H         -24.845324      -74.269958      -22.667145
 H         -25.890923      -69.966721      -22.297325
 H         -27.292978      -71.190750      -22.061291
 H         -25.781570      -72.370758      -23.948370
 H         -24.479553      -71.805351      -22.850941
