20
 generated by VMD
 C         -50.665199     -129.141541      -42.834541
 N         -50.429993     -128.262375      -42.171314
 H         -48.367069     -127.981880      -40.263409
 H         -51.154362     -129.984039      -43.300095
 C         -47.364716     -127.562881      -40.563454
 C         -46.316444     -128.526917      -40.126717
 C         -47.144897     -126.289719      -41.160137
 C         -45.024956     -128.401627      -40.961491
 C         -45.982292     -126.230698      -42.055542
 C         -44.786255     -126.862129      -41.343475
 H         -46.679268     -129.561844      -40.236542
 H         -46.054325     -128.362457      -39.107819
 H         -48.028835     -125.943962      -41.789875
 H         -47.126106     -125.372238      -40.469429
 H         -44.976627     -129.010620      -41.827507
 H         -44.129532     -128.778473      -40.494118
 H         -45.713127     -125.178055      -42.133568
 H         -46.156265     -126.708565      -43.034439
 H         -43.786385     -126.816666      -41.882595
 H         -44.680347     -126.364731      -40.354782
