20
 generated by VMD
 C         -79.388321     -207.116165      -75.812866
 N         -80.229134     -207.106781      -74.971649
 H         -77.530540     -208.240509      -73.004539
 H         -78.430832     -207.255432      -76.430557
 C         -77.100143     -208.686371      -72.168922
 C         -75.873146     -208.247849      -71.522346
 C         -77.959381     -209.772995      -71.582832
 C         -76.277031     -207.945450      -70.118752
 C         -78.156425     -209.524017      -70.091568
 C         -76.936180     -209.084778      -69.295677
 H         -75.326859     -207.461929      -72.033768
 H         -75.233910     -209.149734      -71.470192
 H         -78.883461     -209.625229      -72.216965
 H         -77.542412     -210.725845      -71.878830
 H         -77.005455     -207.112045      -70.049271
 H         -75.392998     -207.663025      -69.527130
 H         -78.719971     -210.361420      -69.515511
 H         -78.847038     -208.705872      -70.068497
 H         -77.267899     -208.931686      -68.266792
 H         -76.244530     -209.940506      -69.356079
