20
 generated by VMD
 C         -62.677559     -172.007858      -55.392696
 N         -62.120461     -173.024963      -55.325161
 H         -61.699787     -171.399994      -58.268131
 H         -63.203018     -171.099030      -55.568295
 C         -62.491692     -170.659927      -58.291180
 C         -62.325478     -169.170135      -57.938538
 C         -63.793163     -171.297302      -58.746044
 C         -63.572433     -168.318649      -58.066727
 C         -64.992462     -170.409973      -58.822697
 C         -64.875938     -169.204758      -57.892715
 H         -61.551346     -168.779663      -58.451920
 H         -61.974674     -169.237564      -56.798920
 H         -63.687428     -171.706406      -59.756031
 H         -64.006271     -172.112076      -58.068516
 H         -63.596317     -167.919205      -59.103458
 H         -63.535191     -167.385666      -57.451881
 H         -65.974556     -170.914902      -58.682796
 H         -65.077438     -170.009781      -59.917885
 H         -65.756584     -168.596832      -58.102890
 H         -64.848267     -169.398972      -56.806458
