20
 generated by VMD
 C          -1.827280       -8.661993       -0.370311
 N          -2.204213       -7.911453        0.357320
 H          -3.208942       -9.379766        2.593446
 H          -1.809956      -10.487496        2.721308
 C          -2.924970      -10.335238        2.921381
 C          -3.732754      -11.415483        2.170245
 C          -3.250364      -10.496153        4.429370
 C          -3.441537      -12.881360        2.657719
 C          -2.957999      -11.859717        4.941202
 C          -3.701292      -12.960649        4.178314
 H          -3.622019      -11.320818        1.054044
 H          -4.772969      -11.157440        2.385984
 H          -2.548167       -9.765389        4.888225
 H          -4.318189      -10.333356        4.630497
 H          -2.452029      -13.194889        2.259927
 H          -4.204415      -13.422591        2.067350
 H          -3.368627      -11.958697        5.947700
 H          -1.915141      -12.077586        4.939437
 H          -3.420783      -13.941646        4.591372
 H          -4.758858      -12.762766        4.387524
