20
 generated by VMD
 C         -30.661003      -75.839844      -22.863449
 N         -30.940596      -75.146927      -23.771400
 H         -29.050022      -78.574936      -21.694778
 H         -30.724369      -76.140167      -21.742723
 C         -28.090511      -78.105103      -21.630293
 C         -27.169817      -78.225555      -22.728981
 C         -27.498293      -77.364326      -20.393707
 C         -26.517757      -76.921883      -23.176146
 C         -26.864590      -76.041695      -20.798023
 C         -25.902822      -76.108177      -22.042635
 H         -27.564257      -78.655922      -23.601776
 H         -26.460329      -78.892090      -22.396818
 H         -28.323519      -77.118675      -19.694799
 H         -26.782093      -77.985016      -19.799862
 H         -27.328039      -76.324402      -23.592665
 H         -25.869020      -77.231644      -24.002974
 H         -26.410219      -75.683243      -19.836216
 H         -27.758314      -75.291252      -21.032017
 H         -25.408239      -75.203491      -22.369576
 H         -24.980568      -76.685806      -21.606951
