20
 generated by VMD
 C         -50.310844     -129.559753      -43.411568
 N         -50.840469     -129.741180      -44.476215
 H         -49.100838     -127.695992      -40.915028
 H         -49.654392     -129.223343      -42.589073
 C         -48.151749     -128.185013      -41.067959
 C         -47.716278     -129.536331      -40.911346
 C         -47.012657     -127.243118      -40.786510
 C         -46.405411     -129.866013      -41.662289
 C         -45.655514     -127.603149      -41.444054
 C         -45.288624     -129.001907      -41.180138
 H         -48.373909     -130.328949      -41.225143
 H         -47.583385     -129.637360      -39.800549
 H         -47.195728     -126.200623      -41.129478
 H         -46.818916     -127.249306      -39.650452
 H         -46.430714     -129.806793      -42.721844
 H         -46.157978     -130.879852      -41.405533
 H         -44.867397     -126.895889      -41.126751
 H         -45.736759     -127.403816      -42.489227
 H         -44.337608     -129.219345      -41.652184
 H         -45.019554     -129.323822      -40.144161
