20
 generated by VMD
 C         -77.611595     -203.083038      -69.484917
 N         -78.022072     -203.932159      -68.858788
 H         -75.344528     -201.809647      -67.324318
 H         -77.226685     -202.330307      -70.215500
 C         -74.896652     -201.599625      -68.243790
 C         -75.152374     -200.109482      -68.568100
 C         -73.868217     -202.463211      -68.840508
 C         -74.720291     -199.708878      -69.995117
 C         -73.098045     -201.731201      -69.906166
 C         -74.062401     -200.741501      -70.756416
 H         -74.640663     -199.479736      -67.779945
 H         -76.196655     -199.922531      -68.445541
 H         -73.162140     -202.835800      -68.026176
 H         -74.443863     -203.363770      -69.329811
 H         -74.304604     -198.717972      -69.863640
 H         -75.671127     -199.442245      -70.522606
 H         -72.721207     -202.539825      -70.506081
 H         -72.165817     -201.237274      -69.653999
 H         -73.449692     -200.320541      -71.588203
 H         -74.752029     -201.354462      -71.238914
