20
 generated by VMD
 C          -3.729338      -17.795977        1.960239
 N          -3.110208      -18.449436        2.623831
 H          -5.611728      -20.434071        0.556765
 H          -6.050463      -21.170891       -0.996330
 C          -6.147877      -20.292173       -0.393511
 C          -5.530351      -19.080967       -1.065946
 C          -7.628362      -20.046410       -0.160288
 C          -6.281878      -18.477104       -2.265303
 C          -8.384119      -19.339102       -1.293120
 C          -7.639299      -18.141207       -1.870166
 H          -4.575573      -19.282515       -1.487083
 H          -5.448885      -18.296240       -0.275949
 H          -8.113193      -21.008776        0.095703
 H          -7.638835      -19.312737        0.663608
 H          -6.319666      -19.204281       -3.075182
 H          -5.725475      -17.567179       -2.636514
 H          -9.421201      -19.116978       -0.968673
 H          -8.457608      -20.040079       -2.172499
 H          -8.181322      -17.836750       -2.761462
 H          -7.647748      -17.344784       -1.129882
