20
 generated by VMD
 C         -40.355804     -118.796768      -35.326519
 N         -39.507023     -118.111572      -35.003662
 H         -43.167347     -116.510147      -36.240112
 H         -41.283241     -119.298203      -35.699657
 C         -43.749306     -116.753365      -37.142990
 C         -42.915676     -117.286644      -38.284824
 C         -45.211620     -116.321671      -37.328873
 C         -43.809296     -118.180321      -39.130867
 C         -45.964436     -117.056503      -38.437321
 C         -44.941601     -117.354660      -39.569881
 H         -42.153774     -117.948036      -37.894936
 H         -42.336964     -116.634895      -38.918530
 H         -45.677620     -116.423004      -36.354057
 H         -45.212139     -115.121475      -37.505955
 H         -44.260792     -119.098808      -38.657131
 H         -43.225895     -118.483528      -39.995457
 H         -46.711079     -116.382584      -38.782463
 H         -46.279919     -118.103668      -38.100903
 H         -45.600838     -117.861237      -40.266697
 H         -44.657207     -116.347771      -39.938820
