20
 generated by VMD
 C         -38.081665     -109.652222      -36.497730
 N         -37.484821     -108.921005      -35.829857
 H         -40.835648     -111.860710      -37.211197
 H         -38.742619     -110.283722      -37.002472
 C         -41.542595     -112.076172      -36.381001
 C         -42.311760     -113.352142      -36.328712
 C         -41.726189     -111.057343      -35.172340
 C         -42.529819     -113.970047      -34.958546
 C         -42.166874     -111.756943      -33.868153
 C         -43.275024     -112.904625      -34.164673
 H         -41.634609     -114.004456      -36.870930
 H         -43.206264     -113.387253      -36.944988
 H         -40.802929     -110.542641      -34.888962
 H         -42.459408     -110.287399      -35.516998
 H         -41.488476     -114.294434      -34.528954
 H         -43.058773     -114.868622      -35.044327
 H         -42.470463     -110.960251      -33.135155
 H         -41.366348     -112.392586      -33.354416
 H         -43.690701     -113.229362      -33.162746
 H         -44.007442     -112.522224      -34.745338
