20
 generated by VMD
 C         -16.173948      -47.642288       -7.028623
 N         -16.002155      -46.549061       -6.910722
 H         -16.773174      -48.153507      -10.201185
 H         -15.401534      -47.691277      -11.263976
 C         -16.424845      -47.503582      -10.988210
 C         -16.425936      -46.035786      -10.545378
 C         -17.320269      -47.691189      -12.213045
 C         -15.959774      -45.127697      -11.668260
 C         -17.008394      -46.743645      -13.371741
 C         -16.861130      -45.327202      -12.893743
 H         -15.749218      -45.923477       -9.686161
 H         -17.406303      -45.652382      -10.097346
 H         -17.204388      -48.737152      -12.601748
 H         -18.394615      -47.637333      -11.916647
 H         -14.911464      -45.380241      -11.896475
 H         -15.895668      -44.074104      -11.315763
 H         -17.706490      -46.793293      -14.248591
 H         -16.084776      -47.170460      -13.679788
 H         -16.508825      -44.724625      -13.708765
 H         -17.807682      -44.869572      -12.632610
