20
 generated by VMD
 C         -40.741905     -100.169296      -29.976818
 N         -40.639122     -100.297798      -28.840679
 H         -37.532600      -99.780800      -30.695051
 H         -40.860710      -99.782822      -31.028965
 C         -36.374199      -99.665581      -30.835630
 C         -36.001881      -99.666397      -32.258366
 C         -35.336929      -99.704933      -29.707127
 C         -34.983379      -98.511276      -32.533348
 C         -34.360962      -98.519852      -29.909742
 C         -33.753330      -98.497765      -31.528202
 H         -36.942341      -99.473869      -32.735867
 H         -35.636337     -100.666191      -32.589115
 H         -35.854248      -99.520370      -28.781075
 H         -34.812634     -100.707054      -29.641768
 H         -35.358521      -97.464394      -32.498871
 H         -34.551327      -98.581711      -33.490044
 H         -33.530552      -98.653847      -29.225832
 H         -34.979992      -97.524841      -29.821970
 H         -33.064487      -97.592140      -31.541767
 H         -33.265144      -99.410362      -31.677029
