20
 generated by VMD
 C         -39.017311     -112.384766      -35.839577
 N         -38.477787     -111.738884      -36.659096
 H         -40.754318     -114.799789      -34.958000
 H         -39.709602     -112.801369      -35.039967
 C         -41.499992     -114.163658      -35.457703
 C         -41.689037     -114.385971      -36.992882
 C         -42.284531     -113.179214      -34.739346
 C         -43.258461     -114.513977      -37.160839
 C         -43.750172     -113.519913      -34.894817
 C         -44.149002     -113.449219      -36.470150
 H         -41.096363     -115.148987      -37.458942
 H         -41.265553     -113.520996      -37.469032
 H         -42.195137     -113.280930      -33.645134
 H         -42.024635     -112.103691      -34.899765
 H         -43.508785     -115.557053      -36.903263
 H         -43.552475     -114.488739      -38.203068
 H         -44.381493     -112.916199      -34.278576
 H         -44.052132     -114.517174      -34.628166
 H         -45.292374     -113.625847      -36.451668
 H         -44.132572     -112.440514      -36.864227
