20
 generated by VMD
 C         -79.419365     -209.110336      -76.221214
 N         -79.181923     -209.717804      -77.153946
 H         -77.689049     -209.044296      -72.753922
 H         -79.648773     -208.488297      -75.359673
 C         -77.898613     -210.060074      -72.432800
 C         -76.964493     -210.594620      -71.370026
 C         -79.056786     -210.892319      -72.786880
 C         -77.674538     -211.158356      -70.215622
 C         -79.770302     -211.760986      -71.671257
 C         -78.708046     -212.306396      -70.617706
 H         -76.329216     -209.745148      -71.003677
 H         -76.147469     -211.363220      -71.676399
 H         -79.944542     -210.377762      -73.257843
 H         -78.708931     -211.613556      -73.491760
 H         -78.179970     -210.293915      -69.759338
 H         -76.931915     -211.477875      -69.465813
 H         -80.382599     -212.599136      -72.231865
 H         -80.339981     -211.040848      -71.122955
 H         -79.266937     -212.673248      -69.756256
 H         -78.102615     -213.160797      -70.912109
