20
 generated by VMD
 C         -13.801284      -43.704815       -6.740610
 N         -13.399890      -43.807552       -5.706491
 H         -14.943654      -45.002972       -8.967864
 H         -14.251379      -43.887802      -10.065270
 C         -15.158019      -44.526272       -9.888525
 C         -16.338217      -43.559906       -9.669226
 C         -15.540830      -45.483936      -10.970734
 C         -16.952879      -42.842480      -10.955495
 C         -16.021730      -44.773903      -12.245679
 C         -17.237562      -43.859890      -12.048970
 H         -15.938704      -42.875126       -8.985792
 H         -17.189762      -44.043259       -9.199275
 H         -14.797585      -46.230595      -11.195171
 H         -16.353817      -46.094967      -10.612426
 H         -16.236095      -42.091667      -11.342785
 H         -17.867594      -42.319191      -10.621385
 H         -16.282328      -45.486916      -12.953524
 H         -15.111332      -44.269123      -12.663537
 H         -17.532150      -43.366005      -12.984027
 H         -18.081924      -44.548397      -11.767498
