20
 generated by VMD
 C         -62.889221     -174.892868      -54.514519
 N         -63.062908     -174.327240      -55.533810
 H         -63.295361     -173.148453      -58.019520
 H         -62.801273     -175.298492      -53.500092
 C         -63.775883     -172.226547      -58.531849
 C         -64.120789     -171.056320      -57.604053
 C         -64.500969     -172.095871      -59.903584
 C         -63.923656     -169.725494      -58.178566
 C         -64.214874     -170.751770      -60.581947
 C         -64.447495     -169.645370      -59.616562
 H         -63.479584     -171.204483      -56.850826
 H         -65.215813     -171.295776      -57.231846
 H         -64.213600     -172.949478      -60.525604
 H         -65.508621     -172.281738      -59.715748
 H         -62.866611     -169.595993      -58.275574
 H         -64.402985     -168.977280      -57.621964
 H         -64.836449     -170.616867      -61.532013
 H         -63.161400     -170.715485      -60.918213
 H         -63.849384     -168.792740      -59.968227
 H         -65.494690     -169.364990      -59.597858
