20
 generated by VMD
 C         -47.790272     -125.743210      -38.855835
 N         -48.386074     -126.690216      -38.583603
 H         -46.096306     -123.390480      -38.119129
 H         -47.239758     -124.869682      -39.220104
 C         -45.576324     -123.250908      -39.098049
 C         -44.546745     -124.247635      -39.407471
 C         -45.566029     -121.963409      -39.878250
 C         -44.560024     -124.558083      -40.956070
 C         -45.584396     -122.288818      -41.375057
 C         -44.508411     -123.224281      -41.723854
 H         -44.566742     -125.209534      -38.919624
 H         -43.716454     -123.616272      -39.127575
 H         -46.521938     -121.431885      -39.644833
 H         -44.669830     -121.343193      -39.518456
 H         -45.497948     -124.970779      -41.358196
 H         -43.622135     -125.152481      -41.235542
 H         -45.429192     -121.242447      -41.936562
 H         -46.630760     -122.735786      -41.692795
 H         -44.718586     -123.477028      -42.779606
 H         -43.553135     -122.782059      -41.638042
