20
 generated by VMD
 C         -63.830929     -174.970474      -55.944229
 N         -62.914921     -175.365784      -56.513508
 H         -66.261749     -173.553268      -58.649517
 H         -64.739746     -174.667801      -55.435326
 C         -65.567368     -172.713028      -58.944767
 C         -65.665939     -171.326080      -58.269924
 C         -64.457420     -173.088364      -59.934174
 C         -64.356766     -170.620773      -58.200111
 C         -63.144417     -172.316315      -59.704403
 C         -63.516109     -170.808609      -59.445377
 H         -66.071564     -171.535553      -57.350323
 H         -66.567314     -170.742630      -58.786537
 H         -64.291702     -174.155136      -60.151436
 H         -64.786812     -172.876846      -60.928802
 H         -63.824871     -170.938110      -57.276615
 H         -64.573738     -169.544113      -58.092220
 H         -62.553402     -172.515732      -60.591961
 H         -62.701900     -172.631607      -58.733658
 H         -62.562828     -170.245590      -59.394314
 H         -64.139221     -170.513214      -60.368202
