20
 generated by VMD
 C         -35.286446      -97.661629      -25.562775
 N         -35.455688      -97.597321      -26.696791
 H         -35.770309      -94.527794      -27.846121
 H         -35.031712      -97.634781      -24.520258
 C         -35.393585      -94.577110      -28.856134
 C         -35.905777      -95.627747      -29.889853
 C         -33.962280      -94.061913      -29.029505
 C         -35.648014      -94.925941      -31.274038
 C         -33.757740      -93.439850      -30.380068
 C         -34.241776      -94.430229      -31.466932
 H         -36.966633      -95.797371      -29.626858
 H         -35.420109      -96.585533      -29.842077
 H         -33.527107      -93.342712      -28.326923
 H         -33.312908      -94.963127      -28.852266
 H         -36.467426      -94.238853      -31.556316
 H         -35.764950      -95.734390      -31.989475
 H         -32.711506      -93.080467      -30.502474
 H         -34.340767      -92.479568      -30.537374
 H         -34.267498      -93.903755      -32.459251
 H         -33.681213      -95.418289      -31.404579
