20
 generated by VMD
 C         -79.501877     -205.382584      -71.025421
 N         -80.290901     -206.195053      -71.399704
 H         -77.219254     -202.909042      -70.094048
 H         -78.823967     -204.737976      -70.406044
 C         -76.209084     -203.310623      -70.201317
 C         -75.319145     -202.147858      -70.494820
 C         -75.839058     -204.768219      -70.047943
 C         -73.824753     -202.654083      -70.448784
 C         -74.642662     -204.772903      -69.071846
 C         -73.473701     -203.984375      -69.679482
 H         -75.373199     -201.342163      -69.760750
 H         -75.584450     -201.716492      -71.500893
 H         -76.644386     -205.471222      -69.702682
 H         -75.657272     -205.187500      -71.079582
 H         -73.207626     -201.849350      -70.116592
 H         -73.586060     -202.717865      -71.465858
 H         -74.252777     -205.736145      -68.936569
 H         -75.001686     -204.524734      -68.019653
 H         -72.802719     -203.709732      -68.970375
 H         -72.943970     -204.683258      -70.280380
