20
 generated by VMD
 C         -60.040363     -157.523315      -56.004570
 N         -60.143547     -157.689178      -57.099777
 H         -60.138439     -157.329987      -52.531910
 H         -59.930382     -157.423401      -54.920486
 C         -59.256069     -157.946625      -52.700928
 C         -57.900150     -157.655975      -52.160660
 C         -59.509945     -159.414841      -53.093723
 C         -57.636215     -158.418930      -50.916576
 C         -59.110580     -160.286530      -51.853664
 C         -57.644474     -160.027664      -51.273602
 H         -57.860313     -156.623123      -51.990940
 H         -57.171055     -157.940720      -52.916557
 H         -60.573326     -159.618011      -53.224831
 H         -59.081318     -159.764023      -54.096329
 H         -58.532650     -158.166000      -50.327679
 H         -56.746300     -158.209244      -50.451069
 H         -59.134132     -161.323166      -51.969128
 H         -59.857143     -159.981323      -51.151039
 H         -57.629116     -160.554382      -50.307041
 H         -56.835609     -160.323074      -51.874367
