20
 generated by VMD
 C         -58.078400     -167.666779      -55.280891
 N         -57.017914     -168.064636      -55.009331
 H         -61.678543     -166.911896      -55.042667
 H         -59.037323     -167.349243      -55.719803
 C         -61.962166     -166.294083      -55.910355
 C         -62.328491     -166.999008      -57.127987
 C         -62.741165     -165.102142      -55.696678
 C         -63.814808     -167.366257      -57.144550
 C         -64.294441     -165.409927      -55.687256
 C         -64.703644     -166.170029      -56.953930
 H         -61.727177     -167.960846      -57.261189
 H         -62.105774     -166.202896      -57.830761
 H         -62.479630     -164.536301      -54.779827
 H         -62.618145     -164.345123      -56.571247
 H         -64.129814     -168.264389      -56.495922
 H         -63.902344     -167.735825      -58.176876
 H         -64.814835     -164.504166      -55.817673
 H         -64.542313     -165.974152      -54.741806
 H         -65.734451     -166.489014      -56.850990
 H         -64.559525     -165.607361      -57.873123
