20
 generated by VMD
 C         -23.373411      -54.165916      -14.952729
 N         -24.254004      -53.514828      -15.344929
 H         -20.065130      -54.904785      -15.395209
 H         -22.498234      -54.524651      -14.714371
 C         -19.240490      -55.071236      -14.850080
 C         -19.028835      -54.362476      -13.521353
 C         -19.053268      -56.634216      -14.911709
 C         -18.511681      -55.305519      -12.435054
 C         -18.099951      -57.307800      -13.875016
 C         -17.492445      -56.314098      -13.005068
 H         -20.063463      -54.068676      -13.171307
 H         -18.311140      -53.537785      -13.758755
 H         -20.004408      -56.985195      -14.592966
 H         -18.854172      -56.881363      -15.961526
 H         -19.386065      -55.777763      -11.961292
 H         -18.002180      -54.708424      -11.663276
 H         -17.328449      -57.834324      -14.389627
 H         -18.660662      -58.088497      -13.250373
 H         -16.844660      -56.785305      -12.277497
 H         -16.754789      -55.815891      -13.604277
