20
 generated by VMD
 C          -9.868599      -24.692894        0.492913
 N         -10.429821      -25.161890       -0.355419
 H          -6.540647      -24.411499       -0.821303
 H          -8.269938      -23.956556       -1.173087
 C          -7.227986      -24.156982       -1.615608
 C          -7.108952      -25.278635       -2.672772
 C          -6.680869      -22.892763       -2.260732
 C          -8.091861      -25.019194       -3.834248
 C          -7.683780      -22.572945       -3.417648
 C          -7.692986      -23.700190       -4.441431
 H          -7.307986      -26.267550       -2.119721
 H          -6.076624      -25.255312       -3.150640
 H          -6.731489      -22.083265       -1.493864
 H          -5.668282      -23.042278       -2.609841
 H          -9.141213      -25.011600       -3.480971
 H          -7.840437      -25.748501       -4.593009
 H          -7.343011      -21.624407       -3.889529
 H          -8.711471      -22.356615       -3.020231
 H          -8.486713      -23.494850       -5.190498
 H          -6.837966      -23.790514       -5.064469
