20
 generated by VMD
 C         -79.061592     -206.651276      -75.398308
 N         -79.427155     -207.098145      -76.448921
 H         -78.518471     -209.884705      -73.226723
 H         -78.745682     -205.984879      -74.650963
 C         -78.035881     -209.921738      -72.282684
 C         -76.795227     -209.070282      -72.042595
 C         -78.257118     -210.965790      -71.162132
 C         -76.807198     -208.439850      -70.687027
 C         -78.180550     -210.277725      -69.760071
 C         -77.033409     -209.417618      -69.502342
 H         -76.795952     -208.231232      -72.745232
 H         -75.844894     -209.586182      -72.211945
 H         -79.189461     -211.605331      -71.259323
 H         -77.399529     -211.674377      -71.235382
 H         -77.494514     -207.587967      -70.511253
 H         -75.768730     -208.111679      -70.527534
 H         -78.059113     -211.096848      -69.085869
 H         -79.142868     -209.711441      -69.473137
 H         -77.333878     -209.020370      -68.525772
 H         -76.105164     -209.977356      -69.314499
