20
 generated by VMD
 C         -29.307863      -89.673477      -25.143732
 N         -29.331358      -88.768951      -25.833941
 H         -31.941969      -91.311462      -27.498428
 H         -29.408207      -90.543221      -24.618952
 C         -32.808414      -90.564636      -27.560455
 C         -33.978859      -90.807587      -26.645605
 C         -32.928150      -89.362190      -28.636568
 C         -34.646416      -89.467690      -26.267965
 C         -33.667122      -88.121765      -28.117821
 C         -34.920422      -88.565636      -27.429506
 H         -33.601234      -91.265564      -25.743223
 H         -34.604664      -91.469048      -27.120184
 H         -31.885557      -89.190666      -28.884333
 H         -33.522102      -89.715385      -29.537144
 H         -33.939884      -88.984467      -25.599546
 H         -35.505131      -89.626839      -25.560501
 H         -33.825916      -87.370224      -28.893314
 H         -33.137844      -87.594269      -27.352686
 H         -35.325699      -87.747963      -26.929382
 H         -35.571037      -89.196526      -28.072649
