20
 generated by VMD
 C         -67.393158     -189.618851      -66.563637
 N         -66.278755     -189.734863      -66.949013
 H         -70.336952     -190.686218      -65.794968
 H         -68.347260     -189.436417      -65.998581
 C         -70.786514     -190.185532      -65.005104
 C         -72.095253     -190.898453      -64.596855
 C         -70.361946     -188.929840      -64.240685
 C         -73.208138     -190.093658      -63.951481
 C         -71.543205     -188.093399      -63.927227
 C         -72.657310     -188.794708      -63.138947
 H         -71.786469     -191.595123      -63.920746
 H         -72.524734     -191.516434      -65.373169
 H         -69.841782     -189.231079      -63.309650
 H         -69.497780     -188.378769      -64.759148
 H         -73.670509     -190.740555      -63.172569
 H         -73.936638     -189.850998      -64.699104
 H         -71.993431     -187.677155      -64.862930
 H         -71.298096     -187.150864      -63.296272
 H         -72.263634     -189.154022      -62.259899
 H         -73.440880     -187.988388      -63.037430
