20
 generated by VMD
 C         -11.220807      -33.853558       -9.358214
 N         -11.331851      -33.933735       -8.233819
 H         -11.459805      -37.598270       -8.027438
 H         -11.973470      -36.845394       -6.516875
 C         -12.281214      -37.560413       -7.319499
 C         -12.207753      -38.902870       -6.533958
 C         -13.633912      -37.230247       -7.937153
 C         -13.334868      -39.004776       -5.533287
 C         -14.797548      -37.470078       -6.975639
 C         -14.715863      -38.775394       -6.165164
 H         -11.213731      -39.118450       -6.116943
 H         -12.338372      -39.785732       -7.222516
 H         -13.762787      -36.201134       -8.364419
 H         -13.796202      -37.874039       -8.836804
 H         -13.150696      -38.352264       -4.658789
 H         -13.340387      -40.061405       -5.048174
 H         -15.704439      -37.447994       -7.587681
 H         -14.794441      -36.593586       -6.333001
 H         -15.440500      -38.696724       -5.397908
 H         -14.987665      -39.665066       -6.754842
