20
 generated by VMD
 C          -2.796238       -9.154107        0.044341
 N          -1.711184       -9.169396        0.117259
 H          -2.294704      -11.610964        2.669218
 H          -2.921155      -12.251196        4.157125
 C          -2.884834      -12.412050        3.099998
 C          -2.617954      -13.864391        2.764485
 C          -4.313375      -11.931254        2.576984
 C          -3.819282      -14.819548        2.965137
 C          -5.414472      -12.859914        2.938933
 C          -5.117813      -14.229497        2.342649
 H          -1.790782      -14.200087        3.372603
 H          -2.297756      -13.931335        1.719606
 H          -4.533547      -11.001682        3.055400
 H          -4.245434      -11.870277        1.483867
 H          -3.936062      -14.956210        4.051131
 H          -3.623155      -15.785340        2.563517
 H          -6.400093      -12.501236        2.599856
 H          -5.447546      -13.007554        4.041107
 H          -5.995146      -14.926438        2.565476
 H          -4.997940      -14.147505        1.237459
