20
 generated by VMD
 C         -12.088492      -37.493740       -7.527399
 N         -11.006446      -37.820831       -7.683256
 H         -12.407633      -41.027416       -8.367785
 H         -13.691421      -40.433384       -7.200350
 C         -13.525994      -40.896297       -8.215467
 C         -14.291617      -42.232265       -8.191669
 C         -14.093942      -40.042530       -9.309396
 C         -15.706331      -41.875374       -7.839288
 C         -15.567142      -39.767712       -9.149327
 C         -16.383806      -41.035862       -8.881027
 H         -13.844753      -42.770634       -7.326054
 H         -14.185854      -42.689934       -9.170488
 H         -13.576693      -39.053226       -9.190116
 H         -13.889132      -40.516865      -10.262297
 H         -15.709387      -41.287376       -6.915429
 H         -16.231052      -42.836258       -7.752479
 H         -15.919265      -39.320316      -10.080386
 H         -15.876040      -39.056080       -8.358562
 H         -17.464640      -40.740173       -8.710443
 H         -16.376204      -41.586895       -9.838334
