20
 generated by VMD
 C         -35.620773      -97.888481      -26.658009
 N         -36.331909      -97.805847      -25.768713
 H         -35.973362      -94.911530      -28.150427
 H         -34.908955      -98.064194      -27.558380
 C         -35.369591      -95.080505      -29.028786
 C         -35.774330      -96.015747      -30.142376
 C         -34.113338      -94.356720      -29.031342
 C         -35.438263      -95.374657      -31.449862
 C         -33.860195      -93.687073      -30.389042
 C         -34.096928      -94.590607      -31.537859
 H         -36.817257      -96.327911      -30.045193
 H         -35.231449      -96.891106      -29.930176
 H         -34.193386      -93.587791      -28.245876
 H         -33.265388      -95.008087      -28.945957
 H         -36.308670      -94.641113      -31.586504
 H         -35.555508      -96.104691      -32.206863
 H         -32.727867      -93.428047      -30.478804
 H         -34.408520      -92.739693      -30.396530
 H         -34.030312      -94.022293      -32.594955
 H         -33.292267      -95.249588      -31.577322
