20
 generated by VMD
 C         -20.269447      -52.239349       -9.832520
 N         -21.084999      -51.501366      -10.223334
 H         -18.386061      -49.296635      -10.664865
 H         -19.176329      -52.873501       -9.420874
 C         -17.648052      -49.381237      -11.410480
 C         -16.853519      -50.602489      -11.808848
 C         -17.293230      -48.192852      -12.237420
 C         -16.937637      -50.850639      -13.335443
 C         -16.915171      -48.406479      -13.770882
 C         -16.189873      -49.698471      -14.049907
 H         -17.388430      -51.507511      -11.408713
 H         -15.793694      -50.541878      -11.515962
 H         -18.105722      -47.502426      -12.114700
 H         -16.469517      -47.671471      -11.712708
 H         -17.957783      -50.945847      -13.750516
 H         -16.295591      -51.707672      -13.407079
 H         -16.282869      -47.659283      -14.137430
 H         -17.828657      -48.445812      -14.361472
 H         -16.102310      -49.866478      -15.128740
 H         -15.141018      -49.623020      -13.682436
