20
 generated by VMD
 C         -30.325869      -94.151718      -25.631115
 N         -29.737690      -93.580292      -24.804447
 H         -33.779030      -92.651680      -26.831009
 H         -30.946962      -94.640381      -26.354599
 C         -34.285988      -92.239212      -27.717394
 C         -35.888885      -92.264313      -27.910635
 C         -33.436264      -91.604416      -28.803574
 C         -36.428223      -91.313545      -28.967125
 C         -34.125969      -90.517960      -29.573812
 C         -35.454342      -91.169655      -30.062304
 H         -36.475166      -92.190208      -27.030308
 H         -35.915215      -93.304581      -28.264408
 H         -32.476673      -91.368233      -28.345201
 H         -33.212563      -92.341660      -29.519838
 H         -36.631855      -90.339890      -28.523067
 H         -37.451500      -91.667397      -29.373472
 H         -33.441212      -90.167152      -30.325323
 H         -34.282402      -89.632858      -28.919218
 H         -35.906746      -90.492317      -30.804516
 H         -35.102882      -91.994873      -30.711775
