20
 generated by VMD
 C          -2.270947      -16.566057        2.531897
 N          -1.591083      -17.448759        2.491114
 H          -4.953975      -16.524685        0.641705
 H          -4.670127      -17.678953       -0.724956
 C          -5.398565      -17.147486       -0.110717
 C          -6.426117      -16.388880       -0.974275
 C          -6.192790      -18.103539        0.819885
 C          -7.196640      -17.345394       -1.927040
 C          -7.046215      -19.007004       -0.009493
 C          -7.916571      -18.368513       -1.065070
 H          -5.951848      -15.677548       -1.651119
 H          -7.106690      -15.762057       -0.363943
 H          -5.545576      -18.781078        1.501064
 H          -6.781481      -17.476273        1.626793
 H          -6.489406      -17.780807       -2.614096
 H          -7.899381      -16.770555       -2.557420
 H          -7.711160      -19.568735        0.638961
 H          -6.461896      -19.831488       -0.514277
 H          -8.425513      -19.141943       -1.649691
 H          -8.644585      -17.827295       -0.464846
