20
 generated by VMD
 C         -30.422850      -94.064522      -25.830259
 N         -30.280159      -93.612000      -24.788645
 H         -33.949318      -92.626999      -26.797937
 H         -30.543224      -94.578056      -26.739180
 C         -34.334251      -92.406494      -27.789104
 C         -35.745792      -92.633492      -28.073454
 C         -33.403000      -91.901810      -28.812407
 C         -36.348331      -91.336029      -28.753975
 C         -33.992264      -90.801521      -29.778656
 C         -35.491985      -90.906616      -29.984636
 H         -36.455399      -92.714195      -27.170847
 H         -35.969643      -93.635246      -28.518661
 H         -32.486042      -91.534210      -28.287811
 H         -33.185322      -92.743614      -29.584427
 H         -36.387482      -90.561722      -27.948307
 H         -37.356251      -91.607666      -29.006762
 H         -33.419685      -90.886360      -30.768803
 H         -33.723286      -89.870407      -29.331480
 H         -35.982357      -90.027359      -30.497965
 H         -35.474697      -91.745201      -30.699121
