20
 generated by VMD
 C         -12.670110      -31.184320       -8.308497
 N         -12.204299      -30.308144       -7.819396
 H         -11.537105      -33.968887       -7.533392
 H         -12.555585      -33.110558       -6.400782
 C         -11.800136      -33.894226       -6.525305
 C         -10.470230      -33.452106       -5.788875
 C         -12.247183      -35.283329       -6.057779
 C         -10.540703      -33.592632       -4.257591
 C         -12.238248      -35.385159       -4.549780
 C         -10.909859      -35.020031       -3.941344
 H         -10.303080      -32.428074       -5.985707
 H          -9.663965      -34.076698       -6.270195
 H         -13.291140      -35.413990       -6.398141
 H         -11.626267      -36.021534       -6.570833
 H         -11.229477      -32.934864       -3.719292
 H          -9.566158      -33.519859       -3.771504
 H         -12.346715      -36.496555       -4.296598
 H         -13.069763      -34.860001       -4.070510
 H         -10.876410      -35.141762       -2.808794
 H         -10.166253      -35.700562       -4.341515
