20
 generated by VMD
 C         -11.729820      -42.366493       -7.132986
 N         -12.233619      -42.214340       -6.157482
 H         -14.682532      -43.126213       -8.283538
 H         -14.989976      -41.936371       -9.674696
 C         -15.280536      -42.950577       -9.253963
 C         -16.778194      -42.974453       -8.947167
 C         -14.893025      -44.030956      -10.304354
 C         -17.471361      -42.499828      -10.230648
 C         -15.529524      -43.596855      -11.637328
 C         -17.067667      -43.352749      -11.436652
 H         -16.988571      -42.231087       -8.155307
 H         -17.101566      -43.942036       -8.571425
 H         -13.768084      -44.000481      -10.306285
 H         -15.339303      -45.003792       -9.971761
 H         -17.151711      -41.486153      -10.473494
 H         -18.556358      -42.570946      -10.097483
 H         -15.347767      -44.446373      -12.368455
 H         -15.108459      -42.740379      -12.057344
 H         -17.576485      -42.919449      -12.338479
 H         -17.458046      -44.365131      -11.310689
