20
 generated by VMD
 C         -19.975779      -50.124722       -9.793541
 N         -19.910595      -51.245808       -9.598548
 H         -16.986652      -48.693573      -10.007577
 H         -20.360460      -49.075989      -10.321733
 C         -16.848360      -48.657890      -11.112522
 C         -15.938746      -49.784889      -11.556074
 C         -17.498991      -47.686016      -12.041611
 C         -15.968635      -50.087574      -13.064868
 C         -17.951826      -48.342846      -13.303448
 C         -16.710728      -49.010578      -13.915915
 H         -16.179350      -50.658794      -10.965823
 H         -14.910224      -49.410366      -11.319070
 H         -18.307163      -47.174282      -11.494055
 H         -16.799559      -46.863190      -12.233504
 H         -16.576424      -50.992245      -13.199466
 H         -14.924564      -50.251694      -13.435905
 H         -18.269873      -47.588661      -13.947959
 H         -18.724445      -49.148346      -13.067552
 H         -16.905695      -49.507397      -14.913994
 H         -16.018747      -48.135250      -14.110746
