20
 generated by VMD
 C         -18.346439      -49.037865       -7.551506
 N         -19.158394      -49.796471       -7.737685
 H         -16.208010      -47.472061      -10.052622
 H         -16.716421      -48.893051      -10.833426
 C         -16.478052      -47.859459      -11.013356
 C         -15.198895      -47.822762      -11.954400
 C         -17.659044      -47.147434      -11.633400
 C         -15.508099      -48.018780      -13.447103
 C         -17.891710      -47.767529      -12.968252
 C         -16.809793      -47.410770      -13.936603
 H         -14.559856      -48.594456      -11.587882
 H         -14.580164      -46.918644      -11.953009
 H         -18.571638      -47.198990      -10.978787
 H         -17.342316      -46.108414      -11.813348
 H         -15.534706      -49.097797      -13.644367
 H         -14.680161      -47.482597      -13.954778
 H         -18.832645      -47.401318      -13.320469
 H         -18.089119      -48.895294      -12.771471
 H         -17.089275      -47.743008      -14.927353
 H         -16.688614      -46.363342      -14.011051
