20
 generated by VMD
 C         -27.706778      -81.155182      -27.518387
 N         -28.814236      -81.436157      -27.549358
 H         -30.297709      -83.143913      -25.310232
 H         -26.708706      -80.879250      -27.213385
 C         -30.558779      -84.020210      -24.745380
 C         -30.349682      -84.045395      -23.196262
 C         -31.190840      -85.089340      -25.576977
 C         -31.712734      -84.517914      -22.675177
 C         -32.511772      -85.475067      -24.772686
 C         -32.283733      -85.691750      -23.319590
 H         -29.960279      -83.106575      -22.900002
 H         -29.521009      -84.823616      -23.137970
 H         -31.525717      -84.702950      -26.610723
 H         -30.510130      -85.946396      -25.692522
 H         -32.383793      -83.670135      -22.597281
 H         -31.715212      -84.813309      -21.571838
 H         -33.002151      -86.487206      -25.109682
 H         -33.311405      -84.754463      -24.986334
 H         -33.250217      -85.898308      -22.789265
 H         -31.595551      -86.520424      -23.061913
