20
 generated by VMD
 C         -31.125059      -78.376503      -26.156336
 N         -31.446066      -77.590424      -25.427986
 H         -29.319874      -77.483894      -22.777237
 H         -30.743231      -79.234344      -26.704929
 C         -28.697672      -78.295135      -22.483957
 C         -27.354298      -78.448372      -23.009119
 C         -29.493906      -79.457352      -22.027561
 C         -26.593647      -79.546059      -22.231094
 C         -28.774103      -80.467560      -21.314100
 C         -27.444876      -80.779343      -22.063927
 H         -26.811434      -77.489281      -23.138483
 H         -27.348669      -78.667946      -24.065796
 H         -30.397438      -79.030136      -21.378136
 H         -30.021225      -79.945641      -22.830093
 H         -26.393641      -79.343193      -21.190426
 H         -25.683046      -79.668617      -22.839760
 H         -29.343822      -81.413048      -21.216415
 H         -28.297373      -80.159142      -20.276562
 H         -26.906137      -81.583145      -21.600859
 H         -27.790749      -81.109711      -23.080261
