20
 generated by VMD
 C         -60.018574     -153.301498      -51.654675
 N         -60.291580     -152.136795      -51.429565
 H         -57.230576     -153.719772      -49.594460
 H         -59.803310     -154.359055      -51.654774
 C         -56.448051     -153.104401      -50.046955
 C         -55.085987     -153.176636      -49.401974
 C         -56.811905     -151.813980      -50.708626
 C         -53.892082     -152.772964      -50.418068
 C         -55.599060     -151.130722      -51.364540
 C         -54.207512     -151.315765      -50.792385
 H         -54.916809     -154.206024      -49.058525
 H         -55.282204     -152.501068      -48.539391
 H         -57.527271     -152.073212      -51.473053
 H         -57.422558     -151.198425      -50.010956
 H         -53.735649     -153.462738      -51.288040
 H         -52.982769     -152.874771      -49.843773
 H         -55.763657     -150.127472      -51.416676
 H         -55.734127     -151.551895      -52.387329
 H         -53.508053     -150.947235      -51.489639
 H         -53.947845     -150.711273      -49.892277
