20
 generated by VMD
 C         -22.996126      -53.486500      -13.853786
 N         -23.664434      -52.871811      -14.495612
 H         -20.850489      -55.143303      -14.346040
 H         -22.242220      -54.339462      -13.305083
 C         -19.763536      -55.004166      -14.068460
 C         -19.135830      -53.619720      -13.812114
 C         -18.755672      -56.109585      -14.317215
 C         -17.928440      -53.798580      -12.834339
 C         -17.432188      -56.146019      -13.492842
 C         -16.865751      -54.773571      -13.284909
 H         -19.879257      -53.016529      -13.344008
 H         -18.724121      -53.163715      -14.662988
 H         -19.226355      -57.088444      -14.199574
 H         -18.467085      -56.033600      -15.358364
 H         -18.388744      -54.147690      -11.915757
 H         -17.559793      -52.792885      -12.546796
 H         -16.793444      -56.825706      -14.102020
 H         -17.584526      -56.614277      -12.540385
 H         -15.952685      -54.731102      -12.651770
 H         -16.435755      -54.482155      -14.321175
