20
 generated by VMD
 C         -30.799314      -75.052673      -22.669481
 N         -31.255020      -75.497910      -21.734640
 H         -28.807253      -77.096649      -21.873898
 H         -30.305214      -74.793655      -23.702507
 C         -27.803661      -77.037498      -21.510950
 C         -26.683788      -77.827820      -22.147755
 C         -27.452076      -75.864464      -20.617626
 C         -25.799736      -76.851303      -22.976553
 C         -26.572622      -74.883942      -21.404167
 C         -25.397190      -75.577515      -22.232658
 H         -26.872711      -78.726448      -22.748337
 H         -26.102253      -78.295349      -21.397429
 H         -28.304688      -75.397339      -20.297155
 H         -26.914486      -76.288918      -19.778126
 H         -26.484497      -76.501251      -23.805639
 H         -24.960943      -77.453339      -23.380323
 H         -26.309786      -74.123390      -20.679625
 H         -27.233557      -74.291962      -22.099306
 H         -24.632710      -74.966110      -22.713766
 H         -24.768911      -75.846565      -21.339285
