20
 generated by VMD
 C         -31.886000      -76.052391      -24.217579
 N         -31.263021      -76.432014      -25.130423
 H         -29.735281      -77.728951      -22.352468
 H         -32.075741      -75.595139      -23.195038
 C         -28.655825      -77.896080      -22.152283
 C         -27.607260      -78.181458      -23.280724
 C         -28.301140      -78.376907      -20.804455
 C         -26.174736      -77.929092      -22.872128
 C         -26.854450      -77.977867      -20.380930
 C         -25.806627      -78.336716      -21.458008
 H         -27.796305      -77.610184      -24.234617
 H         -27.796633      -79.186050      -23.784973
 H         -28.912277      -78.009682      -20.025259
 H         -28.547218      -79.465714      -20.691494
 H         -26.017973      -76.855484      -22.989733
 H         -25.533028      -78.471886      -23.530636
 H         -26.582369      -78.571228      -19.482986
 H         -26.831970      -76.977821      -20.096535
 H         -24.960966      -77.722549      -21.236265
 H         -25.539635      -79.449547      -21.474365
