20
 generated by VMD
 C         -68.922203     -194.874207      -65.532753
 N         -68.642174     -194.486603      -64.455376
 H         -71.283836     -194.081360      -68.028084
 H         -69.194649     -195.476395      -66.373581
 C         -72.020943     -193.779449      -67.311592
 C         -71.742455     -192.503738      -66.509773
 C         -73.369232     -194.423264      -67.336838
 C         -72.839584     -192.210938      -65.482201
 C         -74.514236     -193.330399      -67.021942
 C         -74.124359     -192.027740      -66.269844
 H         -71.541054     -191.752304      -67.253548
 H         -70.589096     -192.573593      -66.110413
 H         -73.709229     -194.900314      -68.245087
 H         -73.257889     -195.295120      -66.603111
 H         -72.654198     -191.231125      -64.892517
 H         -72.780075     -192.984375      -64.716873
 H         -75.304367     -193.834457      -66.459648
 H         -75.038048     -193.081223      -67.996040
 H         -74.154320     -191.224533      -66.898712
 H         -74.972198     -191.793640      -65.536377
