20
 generated by VMD
 C         -12.739912      -27.632399       -2.617589
 N         -13.815909      -27.393522       -2.849656
 H         -10.534280      -27.406874       -3.591369
 H          -9.667832      -26.567152       -4.900734
 C          -9.551317      -27.263220       -4.007431
 C          -8.979738      -28.586611       -4.451446
 C          -8.715739      -26.543606       -2.866383
 C          -7.501177      -28.468369       -4.790703
 C          -7.210224      -26.430651       -3.213593
 C          -6.610160      -27.797771       -3.672563
 H          -9.354773      -28.866701       -5.426970
 H          -9.196738      -29.358822       -3.632606
 H          -9.217096      -25.585739       -2.820539
 H          -8.892650      -27.102066       -1.963180
 H          -7.309712      -27.996630       -5.796100
 H          -7.188122      -29.554636       -4.788440
 H          -6.743903      -26.182016       -2.295121
 H          -6.982950      -25.657927       -3.965370
 H          -5.592698      -27.596344       -4.080296
 H          -6.389555      -28.411331       -2.803622
