20
 generated by VMD
 C         -79.780037     -205.511642      -72.316154
 N         -80.076767     -206.653137      -72.311394
 H         -77.621750     -204.666458      -71.175034
 H         -79.721718     -204.449631      -72.090012
 C         -76.579353     -204.952194      -71.089592
 C         -75.396950     -204.087692      -71.359528
 C         -76.314400     -206.407913      -70.604668
 C         -74.614006     -203.915726      -70.095093
 C         -75.635536     -206.255478      -69.218895
 C         -74.419983     -205.282196      -69.224136
 H         -75.585335     -203.094849      -71.723351
 H         -74.771896     -204.537521      -72.115463
 H         -77.245201     -207.019638      -70.586159
 H         -75.611320     -207.050293      -71.197731
 H         -75.117332     -203.203064      -69.417625
 H         -73.555626     -203.738297      -70.254478
 H         -75.109062     -207.192337      -68.838165
 H         -76.444069     -206.030487      -68.537926
 H         -74.101036     -205.071869      -68.153282
 H         -73.583244     -205.752304      -69.738991
