20
 generated by VMD
 C         -29.571745      -87.926712      -24.996220
 N         -28.948936      -88.430244      -25.830753
 H         -31.285448      -89.447975      -27.766922
 H         -30.133068      -87.609673      -24.045885
 C         -32.332500      -89.582359      -27.448568
 C         -32.679356      -89.456665      -25.995626
 C         -33.391922      -89.483727      -28.445621
 C         -33.522858      -88.220947      -25.672977
 C         -34.167809      -88.142303      -28.193651
 C         -34.586544      -87.884506      -26.722742
 H         -31.768871      -89.484283      -25.383568
 H         -33.312454      -90.361977      -25.878742
 H         -33.122585      -89.563744      -29.484200
 H         -34.155094      -90.249832      -28.326332
 H         -32.729984      -87.482071      -25.362003
 H         -33.975506      -88.437576      -24.675089
 H         -35.096722      -88.082550      -28.798372
 H         -33.579472      -87.362587      -28.617762
 H         -34.674576      -86.843590      -26.617485
 H         -35.426121      -88.489304      -26.437458
