20
 generated by VMD
 C          -6.276068      -22.340445        1.913577
 N          -6.389573      -22.953337        2.837874
 H          -5.449682      -19.698284       -0.544274
 H          -6.906847      -20.470312       -0.207902
 C          -6.307221      -20.138542       -1.020165
 C          -5.756815      -21.295839       -1.935407
 C          -7.196855      -19.172312       -1.861397
 C          -6.916665      -22.003607       -2.686027
 C          -8.328877      -19.829546       -2.555834
 C          -7.871916      -20.993431       -3.386191
 H          -5.233481      -22.036266       -1.311707
 H          -5.081735      -20.739588       -2.663651
 H          -7.484329      -18.337034       -1.213568
 H          -6.503280      -18.671482       -2.607765
 H          -7.469500      -22.579687       -1.930915
 H          -6.587192      -22.796442       -3.374203
 H          -8.960981      -19.090265       -3.086314
 H          -9.067540      -20.237795       -1.851966
 H          -8.684812      -21.475374       -3.901819
 H          -7.200565      -20.533995       -4.099513
