20
 generated by VMD
 C         -50.817074     -128.241547      -41.834118
 N         -51.947594     -128.510223      -41.860619
 H         -47.791840     -127.920525      -40.469780
 H         -49.730343     -128.099167      -41.793716
 C         -46.858608     -127.559601      -40.839981
 C         -45.538422     -127.898102      -40.127388
 C         -46.842518     -126.003754      -41.214600
 C         -44.302734     -127.514244      -40.800484
 C         -45.575832     -125.550705      -41.931793
 C         -44.370262     -126.009087      -41.112118
 H         -45.626617     -129.019257      -39.945286
 H         -45.557495     -127.358719      -39.200592
 H         -47.784073     -125.586586      -41.755154
 H         -47.141251     -125.585121      -40.263565
 H         -44.134384     -128.074188      -41.727734
 H         -43.384323     -127.947128      -40.327824
 H         -45.663151     -124.478180      -42.001675
 H         -45.523258     -125.867622      -42.983841
 H         -43.463364     -125.771729      -41.634464
 H         -44.332428     -125.514969      -40.113468
