20
 generated by VMD
 C         -50.685513     -129.885117      -45.182854
 N         -51.152477     -129.333511      -44.327290
 H         -49.035614     -129.175568      -42.720661
 H         -50.283989     -130.279221      -46.124146
 C         -48.196423     -129.413956      -42.039364
 C         -47.985340     -130.725510      -41.389835
 C         -47.554588     -128.313248      -41.436718
 C         -46.503006     -131.102402      -41.258785
 C         -46.003399     -128.575104      -41.234894
 C         -45.697803     -129.907120      -40.557926
 H         -48.500366     -131.495239      -41.997261
 H         -48.476879     -130.688065      -40.425880
 H         -47.587589     -127.451378      -42.095974
 H         -47.944973     -127.905632      -40.526665
 H         -45.920036     -131.256287      -42.179024
 H         -46.472778     -131.974838      -40.613419
 H         -45.539879     -127.788994      -40.558365
 H         -45.436134     -128.483932      -42.157650
 H         -44.630795     -130.203842      -40.380058
 H         -46.155041     -129.925552      -39.580017
