20
 generated by VMD
 C         -31.646826      -93.205750      -26.101770
 N         -32.204159      -93.962860      -25.395214
 H         -33.511120      -94.375626      -27.860415
 H         -31.226940      -92.438202      -26.713409
 C         -34.018505      -93.564476      -28.442667
 C         -35.418819      -93.204857      -28.196341
 C         -33.487991      -92.932228      -29.661144
 C         -35.636208      -91.644493      -28.145771
 C         -33.730862      -91.403122      -29.740168
 C         -35.166794      -90.968529      -29.361137
 H         -35.770535      -93.635719      -27.197924
 H         -35.931931      -93.606651      -29.096905
 H         -32.377613      -93.082878      -29.678907
 H         -33.736095      -93.403374      -30.639448
 H         -35.171715      -91.279152      -27.198792
 H         -36.716473      -91.499199      -27.855837
 H         -33.477715      -91.139366      -30.829165
 H         -33.110943      -90.780434      -29.105665
 H         -35.339901      -89.900986      -29.439478
 H         -35.682480      -91.451317      -30.146463
