20
 generated by VMD
 C         -39.664562      -99.268723      -28.424831
 N         -38.942013     -100.006668      -27.924623
 H         -37.486172      -98.146645      -30.639370
 H         -40.521893      -98.665726      -28.730362
 C         -36.345043      -98.217995      -30.756870
 C         -35.725368      -98.584221      -32.005066
 C         -35.600105      -97.814598      -29.538040
 C         -34.568199      -97.721054      -32.419159
 C         -34.284927      -97.003189      -29.955627
 C         -33.629410      -97.493858      -31.206974
 H         -36.510223      -98.543976      -32.804367
 H         -35.326927      -99.586891      -31.998034
 H         -36.232166      -97.248688      -28.858086
 H         -35.275223      -98.678947      -29.006472
 H         -34.947170      -96.764809      -32.728077
 H         -34.015701      -98.239716      -33.222309
 H         -33.563538      -96.980659      -29.138424
 H         -34.647915      -96.006508      -30.062637
 H         -32.817303      -96.909599      -31.586239
 H         -33.270397      -98.517540      -30.799492
