20
 generated by VMD
 C         -39.613071     -116.649582      -34.882687
 N         -39.429874     -115.562439      -34.437283
 H         -41.563911     -115.562714      -37.721386
 H         -39.951508     -117.574760      -35.214699
 C         -42.511486     -115.953079      -37.700638
 C         -43.093861     -115.798515      -39.067158
 C         -43.345119     -115.804413      -36.461483
 C         -44.478218     -116.464905      -39.131107
 C         -44.580727     -116.583321      -36.641590
 C         -45.296593     -116.179924      -37.901413
 H         -42.399361     -116.386055      -39.635124
 H         -43.098568     -114.829010      -39.485348
 H         -42.706596     -116.245369      -35.552948
 H         -43.492748     -114.725235      -36.140263
 H         -44.337566     -117.558289      -39.216560
 H         -44.953861     -116.117073      -40.094467
 H         -45.217804     -116.516075      -35.771362
 H         -44.347626     -117.596519      -36.593227
 H         -46.291145     -116.774521      -38.049171
 H         -45.439503     -115.121124      -37.890434
