20
 generated by VMD
 C          -1.757481       -8.639830       -0.203497
 N          -2.290433       -7.856940        0.376659
 H          -3.053831       -9.426873        2.508693
 H          -1.901569      -10.770157        2.612548
 C          -2.942081      -10.400177        2.879188
 C          -3.847416      -11.412671        2.163015
 C          -3.158834      -10.386328        4.377755
 C          -3.472565      -12.748889        2.703591
 C          -2.851364      -11.780338        4.979141
 C          -3.638835      -12.896345        4.199594
 H          -3.592345      -11.416951        1.070555
 H          -4.883238      -11.112714        2.266145
 H          -2.464827       -9.615521        4.755876
 H          -4.219440      -10.222826        4.525971
 H          -2.392240      -12.918951        2.400625
 H          -4.049567      -13.510880        2.102749
 H          -3.094965      -11.877431        6.036054
 H          -1.844068      -12.055313        4.806814
 H          -3.119112      -13.835809        4.468572
 H          -4.700998      -12.938314        4.488799
