20
 generated by VMD
 C         -69.846954     -197.447861      -66.052986
 N         -69.319420     -196.454300      -65.692825
 H         -71.723503     -194.119370      -64.970871
 H         -70.565353     -198.188889      -66.372574
 C         -72.642799     -193.792877      -65.562241
 C         -72.839005     -192.415146      -66.054855
 C         -73.065018     -195.003189      -66.369957
 C         -73.725296     -192.202713      -67.322243
 C         -74.142601     -194.653290      -67.434502
 C         -73.635841     -193.456390      -68.235222
 H         -71.902428     -192.006607      -66.253845
 H         -73.191643     -191.864563      -65.163795
 H         -72.189270     -195.382919      -66.870811
 H         -73.233246     -195.954987      -65.878944
 H         -73.371452     -191.352692      -67.877953
 H         -74.779335     -191.997849      -67.126633
 H         -75.103096     -194.461273      -66.956589
 H         -74.284454     -195.501343      -68.145271
 H         -72.481522     -193.611191      -68.651016
 H         -74.206284     -193.252121      -69.080162
