20
 generated by VMD
 C         -40.437836     -118.816902      -35.467373
 N         -39.549294     -118.249527      -34.999825
 H         -43.451996     -116.562408      -36.030338
 H         -41.367908     -119.178986      -35.933498
 C         -43.834145     -116.903854      -37.023232
 C         -42.988148     -117.359070      -38.158024
 C         -45.150799     -116.255562      -37.395653
 C         -43.814247     -118.193878      -39.158226
 C         -45.897438     -117.084755      -38.503555
 C         -44.971321     -117.482468      -39.675514
 H         -42.198025     -117.975647      -37.699875
 H         -42.449699     -116.502861      -38.646065
 H         -45.828896     -116.393593      -36.543110
 H         -45.228535     -115.236580      -37.669342
 H         -44.125259     -119.159111      -38.750748
 H         -43.041710     -118.553734      -39.862900
 H         -46.736370     -116.507301      -38.908249
 H         -46.325687     -118.083916      -38.194874
 H         -45.484337     -118.055618      -40.435196
 H         -44.509781     -116.598763      -40.332355
