20
 generated by VMD
 C         -40.637653     -119.044594      -35.412868
 N         -39.617512     -118.545082      -35.087437
 H         -44.207661     -117.485687      -36.031288
 H         -41.492989     -119.474823      -35.819386
 C         -43.982960     -117.017967      -36.981869
 C         -43.041477     -117.470673      -38.128811
 C         -45.226871     -116.362953      -37.541164
 C         -43.759186     -118.344543      -39.179180
 C         -45.906704     -117.225433      -38.743614
 C         -44.966591     -117.607147      -39.818474
 H         -42.287125     -118.033363      -37.586311
 H         -42.587795     -116.585823      -38.599751
 H         -46.010956     -116.171890      -36.813107
 H         -44.929153     -115.447128      -37.985077
 H         -44.162754     -119.232170      -38.710804
 H         -42.917843     -118.523552      -39.906742
 H         -46.816444     -116.668999      -38.980103
 H         -46.129478     -118.170105      -38.244137
 H         -45.388962     -118.234993      -40.536209
 H         -44.466110     -116.733749      -40.204090
