20
 generated by VMD
 C         -61.625793     -155.987015      -53.999138
 N         -61.357651     -154.971542      -54.382107
 H         -58.651455     -155.289673      -51.953636
 H         -61.860672     -156.892929      -53.496338
 C         -57.688843     -155.173248      -51.503006
 C         -57.486023     -154.359238      -50.290279
 C         -56.547020     -155.333908      -52.417656
 C         -56.160313     -154.953613      -49.627937
 C         -55.259758     -155.859299      -51.825779
 C         -55.006336     -155.052719      -50.535725
 H         -58.380424     -154.313553      -49.673016
 H         -57.311951     -153.330124      -50.613850
 H         -56.895123     -156.006042      -53.221706
 H         -56.072857     -154.498932      -52.973122
 H         -56.344028     -155.990753      -49.259907
 H         -55.800179     -154.374390      -48.780800
 H         -54.498108     -155.710709      -52.589890
 H         -55.311623     -156.935837      -51.586006
 H         -54.109329     -155.599457      -50.031712
 H         -54.715759     -154.097626      -50.868164
