20
 generated by VMD
 C         -20.224939      -56.190060      -16.725744
 N         -21.343828      -56.196415      -16.984272
 H         -22.624632      -58.975529      -16.980764
 H         -19.194326      -56.308575      -16.760180
 C         -22.318893      -59.633892      -16.190041
 C         -22.438780      -59.236946      -14.787918
 C         -21.850327      -61.102009      -16.603203
 C         -21.159264      -59.642868      -13.979474
 C         -20.679855      -61.506863      -15.609014
 C         -21.003174      -61.267067      -14.126066
 H         -23.426214      -59.616699      -14.360057
 H         -22.406502      -58.136940      -14.832978
 H         -22.694195      -61.734554      -16.463291
 H         -21.585825      -61.180363      -17.637367
 H         -21.429571      -59.469078      -12.953988
 H         -20.285196      -59.065147      -14.265306
 H         -19.808184      -60.879745      -15.899656
 H         -20.601490      -62.592846      -15.744399
 H         -21.845509      -61.787689      -13.631525
 H         -20.114906      -61.619934      -13.570838
