20
 generated by VMD
 C         -19.366199      -62.520561      -17.480589
 N         -20.191326      -62.390045      -16.664217
 H         -22.297676      -64.334465      -16.802738
 H         -18.539373      -62.423954      -18.089735
 C         -23.245378      -64.596619      -17.159952
 C         -23.699160      -64.135872      -18.462723
 C         -24.302561      -65.120094      -16.179710
 C         -24.608578      -65.129822      -19.204084
 C         -25.093468      -66.197662      -16.879438
 C         -25.643358      -65.687988      -18.229536
 H         -22.740131      -64.081337      -19.076708
 H         -24.099020      -63.127151      -18.403507
 H         -23.939491      -65.679550      -15.204283
 H         -25.070881      -64.305038      -15.946905
 H         -24.013655      -65.885483      -19.751984
 H         -25.128769      -64.646347      -20.005735
 H         -26.002064      -66.319260      -16.246689
 H         -24.721510      -67.203972      -16.912954
 H         -26.397629      -66.387032      -18.626350
 H         -26.268389      -64.866859      -17.924175
