20
 generated by VMD
 C         -39.857311     -116.742348      -34.736649
 N         -39.402096     -115.693726      -34.479893
 H         -41.492702     -116.530922      -37.801800
 H         -40.088455     -117.844727      -34.933945
 C         -42.410961     -115.962349      -37.818523
 C         -43.175209     -115.696312      -39.057537
 C         -43.280548     -115.889946      -36.584961
 C         -44.464176     -116.633041      -39.118137
 C         -44.618874     -116.607903      -36.676525
 C         -45.339249     -116.277885      -37.976372
 H         -42.539600     -116.077782      -39.829311
 H         -43.415401     -114.686661      -39.252041
 H         -42.650173     -116.373512      -35.692772
 H         -43.452988     -114.779144      -36.435600
 H         -44.208897     -117.702469      -39.046352
 H         -44.911194     -116.506516      -40.163715
 H         -45.298332     -116.324120      -35.887199
 H         -44.382969     -117.621765      -36.652111
 H         -46.366295     -116.710228      -37.934158
 H         -45.600533     -115.292412      -37.894310
