20
 generated by VMD
 C          -1.613789       -8.058899        0.780532
 N          -2.363518       -7.617398        0.076125
 H          -3.611959       -9.297020        2.405259
 H          -2.225508      -10.434749        2.004620
 C          -3.114636      -10.245554        2.651964
 C          -4.137032      -11.357841        2.440396
 C          -2.820514      -10.091210        4.151389
 C          -3.589375      -12.692863        3.005763
 C          -2.282653      -11.386909        4.779506
 C          -3.203334      -12.627052        4.447448
 H          -4.341225      -11.413580        1.337015
 H          -5.075459      -11.121202        3.031258
 H          -2.135702       -9.272875        4.424142
 H          -3.686232       -9.653587        4.600869
 H          -2.760537      -12.883689        2.306332
 H          -4.351925      -13.429382        2.762810
 H          -2.198998      -11.202105        5.851676
 H          -1.238750      -11.579226        4.540769
 H          -2.685592      -13.534059        4.796437
 H          -4.128592      -12.480615        5.018433
