20
 generated by VMD
 C         -33.348881      -96.686226      -25.377945
 N         -32.670609      -96.681061      -24.406801
 H         -34.553577      -93.961876      -27.450617
 H         -34.036140      -96.476677      -26.126772
 C         -34.692390      -93.481224      -28.386938
 C         -36.054989      -93.567078      -29.118443
 C         -33.555515      -93.150124      -29.310743
 C         -36.203365      -92.769058      -30.483580
 C         -33.819935      -92.287453      -30.560852
 C         -34.990662      -92.944641      -31.328808
 H         -36.869816      -93.157051      -28.383289
 H         -36.344826      -94.617470      -29.218843
 H         -32.712555      -92.756866      -28.649982
 H         -33.135609      -94.092102      -29.696268
 H         -36.486561      -91.684746      -30.287624
 H         -37.092499      -93.286140      -30.908508
 H         -32.865433      -92.234550      -31.214172
 H         -34.197979      -91.309143      -30.245050
 H         -35.121540      -92.326569      -32.140804
 H         -34.932892      -94.047417      -31.714857
