20
 generated by VMD
 C         -67.714073     -179.528046      -58.711590
 N         -68.115807     -179.710693      -59.764172
 H         -67.482941     -176.705261      -59.678387
 H         -67.373528     -179.272430      -57.722378
 C         -66.419174     -176.660431      -60.095383
 C         -66.045502     -176.080444      -61.410156
 C         -65.224197     -177.168274      -59.241024
 C         -65.059753     -174.946930      -61.208382
 C         -64.305542     -176.049271      -59.139053
 C         -63.865181     -175.596817      -60.500305
 H         -66.953972     -175.686478      -61.896168
 H         -65.717308     -176.803436      -62.201866
 H         -65.574394     -177.635437      -58.359459
 H         -64.932472     -178.012115      -59.893265
 H         -65.517776     -174.072449      -60.598278
 H         -64.515511     -174.408432      -62.075802
 H         -63.411648     -176.514252      -58.650700
 H         -64.740570     -175.208023      -58.574059
 H         -63.219173     -174.711945      -60.368660
 H         -63.117962     -176.223709      -61.089520
