20
 generated by VMD
 C         -43.275108     -120.988243      -35.509460
 N         -42.826012     -120.745483      -34.461346
 H         -44.128048     -121.493736      -38.808968
 H         -43.548775     -121.104729      -36.542767
 C         -44.156406     -120.415359      -38.784237
 C         -43.140938     -119.783607      -39.664532
 C         -45.380032     -119.674339      -38.263222
 C         -43.780796     -119.079559      -40.729427
 C         -45.904247     -118.798874      -39.360714
 C         -44.764568     -118.040955      -40.037876
 H         -42.475910     -120.618202      -40.102016
 H         -42.452682     -119.274506      -38.913063
 H         -46.096478     -120.540611      -38.016171
 H         -45.085690     -119.184708      -37.307102
 H         -44.304546     -119.743179      -41.482864
 H         -43.102169     -118.554352      -41.358196
 H         -46.678185     -118.113037      -38.942352
 H         -46.533138     -119.345253      -39.980766
 H         -45.283100     -117.444969      -40.776604
 H         -44.377159     -117.231987      -39.420631
