20
 generated by VMD
 C         -38.444752     -112.666351      -35.832508
 N         -38.030537     -112.032333      -36.688183
 H         -40.879620     -114.416740      -34.775188
 H         -39.001308     -112.984489      -35.012566
 C         -41.769787     -114.275970      -35.477547
 C         -41.912655     -114.545082      -37.008976
 C         -42.807281     -113.498123      -34.735794
 C         -43.404957     -114.748215      -37.370110
 C         -44.219112     -113.896599      -35.139339
 C         -44.308098     -113.709488      -36.695221
 H         -41.155727     -115.307274      -37.260857
 H         -41.487873     -113.536842      -37.348804
 H         -42.620399     -113.596718      -33.653919
 H         -42.750755     -112.439980      -34.904438
 H         -43.809193     -115.757080      -37.185101
 H         -43.477074     -114.565842      -38.500324
 H         -45.088795     -113.344475      -34.769459
 H         -44.332478     -114.974556      -34.970898
 H         -45.392609     -113.853577      -37.021591
 H         -43.921787     -112.695763      -36.844578
