20
 generated by VMD
 C         -26.861647      -71.823883      -17.569647
 N         -27.110064      -72.937988      -17.269863
 H         -24.134785      -69.994278      -18.762699
 H         -26.799213      -70.843941      -17.765427
 C         -24.832067      -70.295921      -19.557129
 C         -24.319571      -71.508522      -20.365061
 C         -25.844099      -69.402039      -20.264338
 C         -25.173613      -72.111420      -21.421303
 C         -26.694750      -70.144203      -21.448200
 C         -25.787483      -71.036934      -22.332863
 H         -24.026556      -72.345352      -19.619255
 H         -23.404003      -71.358093      -21.054234
 H         -26.508341      -68.863022      -19.541864
 H         -25.242754      -68.620926      -20.737392
 H         -25.988907      -72.641769      -20.977522
 H         -24.592726      -72.867668      -21.932621
 H         -27.386326      -69.392265      -21.989470
 H         -27.453533      -70.854164      -20.880510
 H         -26.435455      -71.505051      -23.091179
 H         -25.029665      -70.424263      -22.694645
