20
 generated by VMD
 C         -22.471045      -54.817944      -15.984018
 N         -23.534834      -55.353897      -16.048098
 H         -19.624514      -54.672478      -15.411276
 H         -21.417746      -54.806087      -15.686940
 C         -19.437384      -55.603161      -14.848541
 C         -19.393419      -55.430336      -13.368509
 C         -18.871138      -56.837154      -15.351880
 C         -19.609755      -56.686794      -12.551587
 C         -19.595888      -58.093449      -14.676922
 C         -19.217218      -58.035713      -13.180124
 H         -20.163574      -54.708279      -13.110494
 H         -18.359320      -55.111671      -13.142862
 H         -19.197433      -56.996311      -16.358881
 H         -17.732075      -56.785530      -15.172486
 H         -20.668118      -56.740025      -12.264850
 H         -19.094950      -56.625309      -11.589182
 H         -19.090439      -58.963104      -15.179354
 H         -20.661711      -58.117100      -14.882367
 H         -19.661312      -58.853157      -12.591816
 H         -18.109564      -58.139847      -13.060390
