20
 generated by VMD
 C         -27.813755      -86.369446      -26.168371
 N         -28.282053      -86.885506      -27.067575
 H         -30.783812      -87.010040      -25.300911
 H         -27.288607      -85.820068      -25.397970
 C         -31.831469      -87.141685      -25.565104
 C         -32.853451      -87.552040      -24.565489
 C         -32.125828      -87.515617      -27.007513
 C         -34.351757      -87.466537      -25.145023
 C         -33.568226      -87.433731      -27.423117
 C         -34.473957      -88.250511      -26.422747
 H         -32.975452      -87.027702      -23.669609
 H         -32.530876      -88.549660      -24.349554
 H         -31.460928      -87.004166      -27.758654
 H         -31.856302      -88.558311      -27.137871
 H         -34.603287      -86.345398      -25.178328
 H         -34.921066      -87.983406      -24.315733
 H         -33.686554      -87.926781      -28.385122
 H         -33.835083      -86.383026      -27.500111
 H         -35.424809      -88.269257      -26.888374
 H         -34.165592      -89.246841      -26.540152
