20
 generated by VMD
 C         -70.294540     -197.167175      -66.152420
 N         -69.727768     -196.246246      -65.762321
 H         -71.941795     -194.395508      -64.766716
 H         -70.751831     -198.052917      -66.491585
 C         -72.557571     -194.107742      -65.598534
 C         -72.639778     -192.696915      -66.055824
 C         -73.336403     -195.208939      -66.312569
 C         -73.618057     -192.456055      -67.235664
 C         -73.902344     -194.891327      -67.729927
 C         -73.454742     -193.556198      -68.272278
 H         -71.689392     -192.417999      -66.337540
 H         -72.973045     -192.173599      -65.135788
 H         -72.704292     -196.064285      -66.434418
 H         -74.258598     -195.274384      -65.662682
 H         -73.426544     -191.517181      -67.734894
 H         -74.633392     -192.348923      -66.817719
 H         -75.003410     -194.962280      -67.727448
 H         -73.532921     -195.675110      -68.430840
 H         -72.343529     -193.790756      -68.652588
 H         -74.019318     -193.347855      -69.110748
