20
 generated by VMD
 C         -51.815617     -129.882080      -45.271652
 N         -51.742596     -129.732864      -46.371155
 H         -48.611095     -129.816818      -43.218704
 H         -52.320644     -130.065231      -44.323971
 C         -47.861126     -130.230759      -42.457329
 C         -47.908913     -131.625916      -41.779755
 C         -47.332783     -129.048645      -41.664837
 C         -46.646481     -131.923431      -41.065609
 C         -46.110554     -129.395264      -40.835098
 C         -46.290401     -130.723267      -40.104992
 H         -48.083729     -132.448029      -42.581974
 H         -48.768436     -131.624817      -41.213703
 H         -47.224930     -128.259720      -42.400021
 H         -48.256172     -128.842957      -40.935200
 H         -45.661732     -132.109482      -41.587040
 H         -46.757847     -132.892136      -40.513634
 H         -45.892159     -128.463440      -40.257359
 H         -45.345905     -129.498566      -41.521294
 H         -45.333939     -131.034607      -39.613865
 H         -47.168327     -130.579315      -39.431908
