20
 generated by VMD
 C         -30.367235      -75.846649      -23.186296
 N         -30.899519      -75.772423      -24.189074
 H         -29.421282      -78.587257      -21.768009
 H         -30.179504      -75.743805      -22.155985
 C         -28.440933      -78.066277      -21.774050
 C         -27.578934      -78.230392      -22.957045
 C         -27.676956      -77.747810      -20.472324
 C         -26.726215      -76.993378      -23.136942
 C         -26.869907      -76.494438      -20.578682
 C         -25.851425      -76.608131      -21.833412
 H         -28.233339      -78.304672      -23.796137
 H         -26.905670      -79.139603      -22.928228
 H         -28.322731      -77.653221      -19.669600
 H         -26.947678      -78.525337      -20.290405
 H         -27.444719      -76.233429      -23.498886
 H         -26.038229      -77.164719      -23.965902
 H         -26.337204      -76.065727      -19.751308
 H         -27.677616      -75.743690      -20.860548
 H         -25.431578      -75.653961      -22.020416
 H         -25.133709      -77.492447      -21.669222
