20
 generated by VMD
 C         -11.333378      -34.178356       -8.702325
 N         -10.736282      -35.133820       -8.663426
 H         -11.893167      -37.277534       -7.573433
 H         -12.987383      -36.960011       -6.258683
 C         -12.854835      -37.648899       -7.115892
 C         -12.484904      -39.121162       -6.721489
 C         -14.004040      -37.654701       -8.109316
 C         -13.704936      -39.806366       -6.069265
 C         -15.252801      -38.265461       -7.436093
 C         -14.977075      -39.763412       -6.944886
 H         -11.548088      -39.057011       -6.099754
 H         -12.241471      -39.689095       -7.644939
 H         -14.239400      -36.642357       -8.491409
 H         -13.735438      -38.218536       -8.981073
 H         -13.927043      -39.369709       -5.061452
 H         -13.520189      -40.828831       -5.884139
 H         -16.152027      -38.256134       -8.109440
 H         -15.521749      -37.662106       -6.623967
 H         -15.802084      -40.084190       -6.281204
 H         -14.912379      -40.472481       -7.733188
