20
 generated by VMD
 C         -78.914108     -207.148544      -75.309532
 N         -79.828468     -207.003326      -76.047211
 H         -78.003586     -209.579239      -73.466179
 H         -78.076424     -207.035202      -74.685356
 C         -77.777031     -209.473389      -72.335953
 C         -76.556374     -208.624451      -71.890450
 C         -78.266090     -210.463165      -71.365913
 C         -76.610039     -208.210556      -70.356850
 C         -78.206108     -210.087952      -69.905174
 C         -76.911148     -209.420715      -69.500671
 H         -76.521950     -207.646881      -72.399384
 H         -75.591080     -209.132889      -72.187660
 H         -79.370186     -210.368317      -71.356079
 H         -77.953545     -211.412231      -71.733398
 H         -77.287872     -207.386185      -70.230888
 H         -75.625786     -207.791763      -70.079376
 H         -78.225136     -211.057220      -69.408234
 H         -79.016594     -209.516022      -69.470978
 H         -76.929558     -209.168747      -68.422997
 H         -75.983513     -210.009811      -69.629845
