20
 generated by VMD
 C         -79.026817     -208.169373      -75.940163
 N         -78.316864     -207.532654      -75.243553
 H         -79.178612     -210.020660      -73.501907
 H         -79.777039     -208.783905      -76.366081
 C         -78.617332     -210.188324      -72.563065
 C         -77.502747     -209.307159      -72.376572
 C         -78.880989     -211.185944      -71.554008
 C         -77.098289     -208.894821      -70.938911
 C         -78.541565     -210.653229      -70.127251
 C         -77.113602     -210.087769      -70.005814
 H         -77.638756     -208.402451      -72.954620
 H         -76.653091     -209.721191      -72.939682
 H         -79.965996     -211.367905      -71.512825
 H         -78.366203     -212.092712      -71.841988
 H         -77.731506     -208.024963      -70.685303
 H         -76.079384     -208.472946      -71.006912
 H         -78.507576     -211.671768      -69.671005
 H         -79.300728     -210.064453      -69.539482
 H         -76.804222     -209.928360      -68.951942
 H         -76.462097     -210.807434      -70.446503
