20
 generated by VMD
 C         -48.439373     -133.445770      -47.302197
 N         -48.158024     -133.262192      -48.366230
 H         -49.112106     -134.201538      -44.146488
 H         -48.860935     -133.682007      -46.368122
 C         -49.861546     -134.925873      -43.777599
 C         -50.044720     -136.291016      -44.480522
 C         -50.835232     -134.505432      -42.752594
 C         -50.385860     -137.345078      -43.458878
 C         -51.147964     -135.612595      -41.848900
 C         -51.608101     -136.890533      -42.561588
 H         -49.111382     -136.426010      -45.050106
 H         -50.807068     -136.181747      -45.195435
 H         -50.410637     -133.669937      -42.156525
 H         -51.614944     -134.124130      -43.279755
 H         -49.526104     -137.545639      -42.831696
 H         -50.450081     -138.303802      -44.026714
 H         -51.933559     -135.352280      -41.054367
 H         -50.279297     -136.048294      -41.242619
 H         -51.889542     -137.752167      -41.903667
 H         -52.326092     -136.575119      -43.317142
