20
 generated by VMD
 C         -47.936691     -125.121155      -38.932529
 N         -47.346237     -126.059731      -38.596310
 H         -45.753769     -123.244171      -37.878891
 H         -48.373959     -124.143265      -39.071270
 C         -45.383598     -123.111183      -38.879910
 C         -44.255768     -123.952805      -39.312939
 C         -45.574661     -121.893616      -39.694595
 C         -44.530815     -124.361137      -40.846832
 C         -45.896091     -122.248566      -41.158787
 C         -44.813522     -123.175720      -41.709126
 H         -44.268745     -124.902481      -38.603947
 H         -43.252819     -123.579506      -39.273739
 H         -46.358742     -121.399261      -39.201366
 H         -44.661507     -121.212029      -39.713562
 H         -45.122112     -125.238617      -41.074585
 H         -43.591206     -124.615303      -41.300449
 H         -46.012482     -121.461861      -41.838608
 H         -46.863216     -122.689735      -41.165619
 H         -45.247540     -123.551682      -42.693592
 H         -43.872498     -122.662445      -42.013824
