20
 generated by VMD
 C         -50.776443     -129.897873      -46.269360
 N         -50.857491     -130.219757      -45.129509
 H         -48.040268     -131.900543      -44.362682
 H         -50.466919     -129.292435      -47.138397
 C         -47.772247     -131.913086      -43.334637
 C         -48.245831     -133.194519      -42.537487
 C         -48.010376     -130.574509      -42.653728
 C         -47.747814     -133.074387      -41.125401
 C         -47.458508     -130.596710      -41.223286
 C         -48.025452     -131.755829      -40.471546
 H         -47.845757     -134.077240      -43.077583
 H         -49.378464     -133.298752      -42.490772
 H         -47.547184     -129.758713      -43.339985
 H         -49.074951     -130.370804      -42.612682
 H         -46.633606     -133.091064      -41.125324
 H         -48.156502     -133.779251      -40.403774
 H         -47.600128     -129.617538      -40.895851
 H         -46.416267     -130.763718      -41.471924
 H         -47.556232     -131.725098      -39.427105
 H         -49.058628     -131.620636      -40.163185
