20
 generated by VMD
 C         -68.880440     -192.882553      -66.326775
 N         -68.131401     -193.392975      -67.045227
 H         -69.949097     -189.937134      -65.466751
 H         -69.443855     -192.496078      -65.414246
 C         -70.879974     -190.529037      -65.311630
 C         -71.780579     -190.842972      -66.490623
 C         -71.514458     -190.707581      -63.896385
 C         -72.620071     -191.966354      -66.213150
 C         -73.039871     -190.636398      -64.006508
 C         -73.621590     -191.610092      -65.092560
 H         -71.183990     -191.097076      -67.353996
 H         -72.420052     -189.946701      -66.622543
 H         -71.233093     -191.752609      -63.679234
 H         -71.259293     -189.929733      -63.204014
 H         -71.982437     -192.847504      -66.029182
 H         -73.087608     -192.402069      -67.122879
 H         -73.366356     -189.659622      -64.296326
 H         -73.516388     -190.880859      -63.056755
 H         -73.914017     -192.594284      -64.582626
 H         -74.552826     -191.172531      -65.628082
