20
 generated by VMD
 C         -20.965784      -52.311512       -9.606540
 N         -21.308653      -52.302589      -10.722317
 H         -19.307014      -49.639946      -12.066430
 H         -20.459158      -51.965172       -8.506849
 C         -18.263466      -50.027008      -12.181832
 C         -17.862053      -51.402515      -12.564809
 C         -17.281807      -48.921238      -12.193107
 C         -16.787453      -51.289852      -13.677729
 C         -16.591515      -48.857822      -13.586476
 C         -15.783587      -50.146221      -13.818868
 H         -18.664204      -52.049160      -12.926771
 H         -17.491014      -51.917114      -11.667581
 H         -17.824280      -48.010822      -11.899754
 H         -16.604757      -49.088131      -11.392533
 H         -17.321581      -51.113659      -14.595999
 H         -16.241884      -52.242023      -13.721024
 H         -15.753028      -48.089092      -13.551239
 H         -17.284433      -48.647526      -14.366803
 H         -15.298958      -50.031357      -14.825722
 H         -14.932889      -50.221947      -13.111794
