20
 generated by VMD
 C          -1.376607      -11.810534        1.537708
 N          -1.080506      -12.393660        0.659576
 H          -3.890880      -13.032529        0.601347
 H          -5.586906      -12.928881        0.725989
 C          -4.739019      -13.595737        0.949134
 C          -4.528873      -13.874409        2.496320
 C          -4.744316      -14.964238        0.166885
 C          -5.725022      -14.775321        2.952521
 C          -5.858111      -15.823526        0.707337
 C          -5.881743      -16.092354        2.184825
 H          -4.598159      -12.842076        2.913888
 H          -3.534748      -14.343968        2.544527
 H          -4.985032      -14.784624       -0.830791
 H          -3.782126      -15.401075        0.249993
 H          -6.590007      -14.129643        2.668737
 H          -5.696839      -14.888498        4.063002
 H          -5.828960      -16.783077        0.104907
 H          -6.799421      -15.316101        0.418546
 H          -6.810769      -16.584394        2.408129
 H          -5.105585      -16.770416        2.408029
