20
 generated by VMD
 C         -22.548212      -55.272053      -17.250446
 N         -23.081181      -54.576210      -18.034586
 H         -20.046841      -56.005180      -14.308074
 H         -22.375059      -56.058270      -16.373455
 C         -20.131367      -57.091305      -14.245759
 C         -20.787479      -57.642033      -12.982416
 C         -19.169369      -57.796722      -15.190653
 C         -20.992699      -59.139038      -13.110817
 C         -19.408243      -59.304478      -15.216390
 C         -19.687681      -59.828186      -13.746302
 H         -21.629185      -57.046246      -12.655606
 H         -20.026075      -57.385155      -12.203564
 H         -19.142550      -57.291981      -16.186295
 H         -18.120043      -57.609447      -14.752095
 H         -21.796461      -59.301804      -13.864740
 H         -21.275978      -59.736809      -12.181262
 H         -18.507984      -59.805912      -15.556683
 H         -20.267406      -59.633480      -15.841028
 H         -19.812485      -60.877129      -13.681707
 H         -18.904570      -59.603786      -12.994941
