20
 generated by VMD
 C         -31.698917      -78.881577      -26.463905
 N         -31.024374      -78.053383      -26.884531
 H         -28.864178      -80.471710      -24.937222
 H         -32.475555      -79.637512      -26.086195
 C         -28.822659      -81.154831      -24.173094
 C         -27.585396      -80.988380      -23.252354
 C         -29.969147      -82.115143      -23.764057
 C         -27.941286      -81.139954      -21.816422
 C         -30.163157      -82.149490      -22.249094
 C         -28.855896      -82.419609      -21.530397
 H         -27.155598      -80.077469      -23.558386
 H         -27.048075      -81.884705      -23.608027
 H         -30.880066      -81.833389      -24.233168
 H         -29.618559      -83.129601      -24.138683
 H         -28.580799      -80.239502      -21.612736
 H         -27.065374      -81.087914      -21.099579
 H         -30.825899      -82.883064      -21.935261
 H         -30.726364      -81.242348      -22.079777
 H         -29.017931      -82.565857      -20.465622
 H         -28.445013      -83.373573      -21.768721
