20
 generated by VMD
 C         -61.630611     -172.393921      -54.923531
 N         -60.711769     -172.967209      -55.198162
 H         -62.183674     -170.701019      -58.492687
 H         -62.435596     -171.670441      -54.807117
 C         -62.760147     -170.104553      -57.811775
 C         -62.539917     -168.576141      -57.697437
 C         -64.323181     -170.542847      -57.664486
 C         -63.445972     -167.851685      -58.676044
 C         -65.093575     -169.748627      -58.610092
 C         -64.883942     -168.281754      -58.438309
 H         -61.476643     -168.379318      -57.923412
 H         -62.737595     -168.275864      -56.635937
 H         -64.359528     -171.632858      -57.899017
 H         -64.551750     -170.385971      -56.635559
 H         -63.262871     -168.133484      -59.747341
 H         -63.431679     -166.700897      -58.734859
 H         -66.127083     -169.990677      -58.552429
 H         -64.906700     -170.074020      -59.572746
 H         -65.460907     -167.628098      -59.157265
 H         -65.136742     -167.985245      -57.408669
