20
 generated by VMD
 C         -34.811649      -97.195129      -26.486120
 N         -34.519485      -97.594048      -25.415289
 H         -35.644451      -93.938820      -27.564243
 H         -35.066742      -97.020576      -27.515673
 C         -35.223297      -94.062378      -28.560438
 C         -36.012558      -94.919945      -29.578943
 C         -33.811081      -93.703377      -28.982061
 C         -35.841812      -94.427917      -31.069508
 C         -33.789913      -93.117889      -30.439745
 C         -34.417110      -94.225914      -31.380070
 H         -37.079121      -94.951195      -29.223206
 H         -35.631638      -95.916046      -29.401342
 H         -33.345314      -92.865723      -28.445232
 H         -33.130890      -94.510689      -28.869364
 H         -36.392796      -93.444733      -31.297642
 H         -36.263618      -95.255264      -31.653824
 H         -32.662777      -93.074944      -30.733850
 H         -34.285297      -92.135384      -30.473331
 H         -34.369473      -94.009331      -32.565166
 H         -33.940327      -95.191002      -31.202072
