20
 generated by VMD
 C         -11.474406      -41.841255       -7.003162
 N         -11.879491      -42.343761       -6.099164
 H         -14.914430      -43.350445       -8.177094
 H         -14.774701      -41.968071       -9.086309
 C         -15.343729      -42.896603       -9.140288
 C         -16.846678      -42.676750       -8.946156
 C         -14.850452      -43.741528      -10.330605
 C         -17.547693      -42.489319      -10.287772
 C         -15.580039      -43.421379      -11.597407
 C         -17.048475      -43.494812      -11.315502
 H         -17.070354      -41.818462       -8.289481
 H         -17.230572      -43.647820       -8.493607
 H         -13.800673      -43.569046      -10.550982
 H         -15.117352      -44.781029      -10.098978
 H         -17.392925      -41.423313      -10.567060
 H         -18.615753      -42.720779      -10.196655
 H         -15.285293      -44.046097      -12.406427
 H         -15.234187      -42.388813      -11.981315
 H         -17.617123      -43.369183      -12.209470
 H         -17.408745      -44.482456      -10.979413
