20
 generated by VMD
 C         -66.519875     -177.927597      -56.943565
 N         -67.664650     -178.028656      -56.941902
 H         -64.335350     -175.993561      -59.425495
 H         -65.478630     -177.814880      -56.845402
 C         -64.354622     -175.016510      -59.662037
 C         -65.513428     -174.211380      -59.210995
 C         -63.182266     -174.489426      -60.363773
 C         -65.252998     -172.717239      -59.214912
 C         -63.016045     -172.985352      -60.412582
 C         -64.354912     -172.289215      -60.395493
 H         -66.048096     -174.620972      -58.268272
 H         -66.241470     -174.307800      -59.972626
 H         -62.201591     -174.889938      -59.857723
 H         -63.141644     -174.854843      -61.446228
 H         -64.763870     -172.472168      -58.259953
 H         -66.128242     -172.073303      -59.151909
 H         -62.413567     -172.575546      -61.197792
 H         -62.396198     -172.862106      -59.491554
 H         -64.031380     -171.308578      -60.241188
 H         -64.674156     -172.325775      -61.435966
