20
 generated by VMD
 C         -49.585609     -127.725174      -38.978989
 N         -49.898701     -126.758385      -38.424706
 H         -46.886078     -125.674240      -40.883404
 H         -49.218449     -128.600449      -39.534782
 C         -46.075031     -124.983459      -40.833408
 C         -44.837250     -125.486176      -40.236671
 C         -46.361393     -123.516380      -40.816933
 C         -43.656521     -124.837692      -40.945782
 C         -45.260490     -122.748779      -41.516335
 C         -43.750095     -123.264008      -41.016335
 H         -44.761345     -126.540817      -40.417488
 H         -44.793266     -125.382790      -39.070908
 H         -47.230911     -123.112206      -41.375637
 H         -46.483662     -123.141747      -39.781151
 H         -43.443722     -125.235100      -41.987656
 H         -42.761318     -125.074577      -40.298389
 H         -45.377541     -121.709106      -41.362232
 H         -45.201054     -122.927910      -42.572079
 H         -42.973267     -122.902832      -41.763134
 H         -43.567379     -122.861649      -40.042969
