20
 generated by VMD
 C         -13.623857      -28.195440       -3.567548
 N         -14.026405      -27.313738       -4.125818
 H         -10.359464      -28.942698       -2.707160
 H         -10.133427      -27.425692       -3.849284
 C          -9.676720      -28.326941       -3.298686
 C          -9.072330      -29.385607       -4.256742
 C          -8.489443      -27.773209       -2.426818
 C          -8.014311      -28.705322       -5.186148
 C          -7.383455      -27.177959       -3.327112
 C          -6.835805      -28.262953       -4.281788
 H         -10.007470      -29.806650       -4.770062
 H          -8.673618      -30.242693       -3.759248
 H          -8.881118      -26.942978       -1.806276
 H          -8.055600      -28.594309       -1.846709
 H          -8.441418      -27.910454       -5.814535
 H          -7.579664      -29.397575       -5.951532
 H          -6.559054      -26.837019       -2.653874
 H          -7.717833      -26.287628       -3.865716
 H          -6.053386      -27.730637       -4.832856
 H          -6.313797      -29.046701       -3.741768
