20
 generated by VMD
 C         -72.476166     -199.321976      -65.202202
 N         -71.364807     -199.372131      -64.836525
 H         -71.489578     -196.189682      -66.872345
 H         -73.505028     -199.180801      -65.429680
 C         -72.309013     -195.785614      -67.450996
 C         -72.860031     -194.500107      -67.080971
 C         -72.790184     -196.447342      -68.651978
 C         -73.944237     -194.016098      -68.019882
 C         -74.288284     -196.275772      -69.055084
 C         -74.957039     -195.170303      -68.241821
 H         -71.995659     -193.791122      -67.106949
 H         -73.183998     -194.486633      -66.107117
 H         -72.307144     -195.949066      -69.538620
 H         -72.475525     -197.538834      -68.602562
 H         -73.529221     -193.471039      -68.901993
 H         -74.452156     -193.135803      -67.533813
 H         -74.906311     -197.158829      -68.852188
 H         -74.343826     -196.065384      -70.120407
 H         -75.906731     -194.734055      -68.568512
 H         -75.312935     -195.500702      -67.266869
