20
 generated by VMD
 C         -79.158195     -206.783127      -75.376053
 N         -79.151794     -207.116211      -76.465576
 H         -78.983566     -209.693802      -72.757141
 H         -79.137085     -206.197388      -74.413040
 C         -78.090813     -210.000824      -72.176529
 C         -76.840363     -209.177002      -72.083817
 C         -78.370033     -211.068527      -71.188332
 C         -76.933716     -208.505463      -70.767326
 C         -78.250481     -210.426727      -69.821716
 C         -77.003822     -209.453674      -69.666748
 H         -76.649582     -208.515701      -72.936813
 H         -76.048630     -209.906433      -72.070450
 H         -79.305794     -211.587509      -71.244797
 H         -77.616219     -211.866486      -71.304276
 H         -77.778770     -207.809387      -70.795570
 H         -76.015358     -207.998566      -70.546936
 H         -78.115814     -211.298737      -69.144203
 H         -79.174538     -209.927734      -69.607407
 H         -77.219841     -208.774323      -68.809837
 H         -76.050667     -210.035568      -69.527336
