20
 generated by VMD
 C         -58.897678     -158.954590      -57.886276
 N         -58.472160     -160.065918      -57.620998
 H         -58.627701     -161.413803      -54.916416
 H         -59.343376     -157.980469      -58.137943
 C         -59.326118     -161.545135      -54.080044
 C         -58.795742     -161.878052      -52.664219
 C         -60.774815     -161.943832      -54.318153
 C         -59.861320     -161.640091      -51.555237
 C         -61.785507     -161.922745      -53.190750
 C         -61.198723     -162.412018      -51.786278
 H         -57.858158     -161.414825      -52.448143
 H         -58.503990     -162.991547      -52.625584
 H         -61.168144     -161.333633      -55.179668
 H         -60.729786     -162.917572      -54.679573
 H         -60.146286     -160.449188      -51.725311
 H         -59.329025     -161.832367      -50.665974
 H         -62.570251     -162.614655      -53.485466
 H         -62.246162     -160.997955      -52.927109
 H         -61.912296     -162.259155      -51.012142
 H         -60.997158     -163.447311      -51.937656
