20
 generated by VMD
 C         -58.467720     -161.928955      -56.412106
 N         -57.288631     -161.772720      -56.541683
 H         -59.500702     -164.785660      -55.163548
 H         -59.518749     -162.126694      -56.176289
 C         -60.293762     -164.174637      -54.925991
 C         -60.324181     -163.909042      -53.404266
 C         -61.622135     -164.423645      -55.676941
 C         -61.247936     -162.698120      -53.143700
 C         -62.806362     -163.426163      -55.095573
 C         -62.640968     -163.136185      -53.553596
 H         -59.297974     -163.762848      -53.106148
 H         -60.721066     -164.762756      -52.945862
 H         -61.332043     -164.452057      -56.790478
 H         -61.924416     -165.434708      -55.468636
 H         -61.042446     -161.828735      -53.639500
 H         -61.253532     -162.338165      -52.102310
 H         -63.809429     -163.979065      -55.260124
 H         -62.609695     -162.547211      -55.621349
 H         -63.453754     -162.560501      -53.186886
 H         -62.848030     -164.073303      -53.021595
