20
 generated by VMD
 C         -79.447983     -205.994034      -73.144531
 N         -80.436996     -206.434021      -72.671341
 H         -77.840263     -204.783447      -70.970963
 H         -78.401779     -205.816940      -73.550720
 C         -76.848785     -205.142944      -70.734253
 C         -75.665535     -204.412979      -71.271507
 C         -76.624535     -206.541489      -70.218681
 C         -74.733109     -204.271835      -70.114075
 C         -75.420258     -206.530777      -69.220261
 C         -74.364967     -205.579117      -69.485626
 H         -75.932198     -203.442001      -71.620995
 H         -75.205856     -204.918381      -72.154167
 H         -77.568344     -206.819626      -69.793861
 H         -76.553841     -207.282776      -71.049370
 H         -75.271812     -203.634247      -69.321182
 H         -73.750656     -203.761185      -70.484032
 H         -75.060883     -207.572845      -69.103783
 H         -75.684845     -206.251984      -68.257454
 H         -73.793747     -205.501297      -68.532303
 H         -73.673988     -205.976318      -70.256798
