20
 generated by VMD
 C         -68.650658     -185.404587      -66.948761
 N         -67.680031     -184.765686      -66.824257
 H         -68.987747     -188.164978      -64.678696
 H         -69.590347     -185.846054      -67.017822
 C         -69.475899     -187.745895      -63.772076
 C         -69.556633     -186.270401      -63.792313
 C         -70.247017     -188.595093      -62.862747
 C         -69.574776     -185.596848      -62.431770
 C         -70.009956     -188.009750      -61.435062
 C         -70.435532     -186.447098      -61.470451
 H         -70.337364     -185.812561      -64.408577
 H         -68.620064     -185.938599      -64.207535
 H         -71.294334     -188.641739      -63.234276
 H         -69.862961     -189.691681      -62.941269
 H         -69.796265     -184.540527      -62.521320
 H         -68.526047     -185.567520      -61.967800
 H         -69.003571     -188.031021      -61.049248
 H         -70.736740     -188.553726      -60.886578
 H         -71.522293     -186.463104      -61.725018
 H         -70.406151     -185.906296      -60.411610
