20
 generated by VMD
 C         -68.132225     -188.208405      -66.583946
 N         -68.830688     -188.658356      -67.396637
 H         -68.316376     -187.114456      -63.553772
 H         -67.432480     -187.903137      -65.772835
 C         -69.309967     -187.598526      -63.619064
 C         -69.353996     -188.964508      -63.074966
 C         -70.434448     -186.626022      -63.433670
 C         -70.758911     -189.684479      -63.423557
 C         -71.761299     -187.302109      -63.759842
 C         -71.931549     -188.701538      -63.113625
 H         -69.197060     -189.146759      -62.009315
 H         -68.474678     -189.429794      -63.603973
 H         -70.448959     -186.358719      -62.391521
 H         -70.266762     -185.832336      -64.234756
 H         -70.875778     -190.694077      -62.945766
 H         -70.769814     -189.945923      -64.503113
 H         -71.826889     -187.511337      -64.816200
 H         -72.491379     -186.535950      -63.478157
 H         -71.880127     -188.471848      -62.059700
 H         -72.956215     -189.160492      -63.193539
