20
 generated by VMD
 C         -13.285549      -43.339760       -6.641310
 N         -12.906063      -42.421162       -7.115004
 H         -14.762635      -44.435177       -8.443433
 H         -14.426667      -42.845730       -9.323506
 C         -15.093551      -43.800919       -9.266085
 C         -16.493904      -43.237663       -9.088316
 C         -14.916135      -44.526001      -10.546812
 C         -17.056023      -42.542278      -10.307912
 C         -15.593473      -43.905407      -11.793464
 C         -17.040882      -43.477749      -11.482396
 H         -16.548597      -42.567848       -8.223024
 H         -17.195061      -44.044731       -8.792440
 H         -13.808290      -44.694553      -10.697649
 H         -15.280832      -45.537563      -10.299691
 H         -16.561155      -41.611683      -10.567226
 H         -18.078190      -42.276440      -10.084667
 H         -15.784427      -44.653927      -12.491470
 H         -14.944838      -43.077469      -12.243402
 H         -17.545338      -43.076756      -12.366131
 H         -17.626471      -44.360355      -11.102166
