20
 generated by VMD
 C         -49.791565     -131.899979      -46.621014
 N         -50.043678     -132.580765      -47.467480
 H         -48.059097     -132.629837      -44.115707
 H         -49.443371     -131.357239      -45.762161
 C         -48.859131     -132.955795      -43.497478
 C         -49.514431     -134.271652      -43.988632
 C         -48.965134     -132.498413      -42.067272
 C         -49.376163     -135.326035      -42.866375
 C         -48.832573     -133.600998      -41.131760
 C         -49.796780     -134.742203      -41.537216
 H         -49.171829     -134.632904      -44.961605
 H         -50.567738     -133.887329      -44.093674
 H         -48.075058     -131.840927      -41.868427
 H         -49.831032     -131.820770      -41.786205
 H         -48.301964     -135.599625      -42.724262
 H         -50.007908     -136.245239      -42.966602
 H         -49.018448     -133.273544      -40.111500
 H         -47.853210     -134.020935      -41.191322
 H         -49.899689     -135.560120      -40.642853
 H         -50.854504     -134.426147      -41.524006
