20
 generated by VMD
 C         -28.167042      -82.372017      -26.793808
 N         -27.349733      -83.182167      -26.988766
 H         -31.195335      -84.142914      -26.541237
 H         -29.013561      -81.618393      -26.692169
 C         -31.630426      -84.757004      -25.854309
 C         -31.194536      -84.618629      -24.328421
 C         -32.191811      -86.140816      -26.184122
 C         -32.105522      -85.281166      -23.400595
 C         -33.107738      -86.740425      -25.165241
 C         -32.507622      -86.699654      -23.772779
 H         -30.972235      -83.541115      -24.173977
 H         -30.298248      -85.188065      -24.192690
 H         -32.506145      -86.164680      -27.225958
 H         -31.376272      -86.915573      -26.218071
 H         -33.134636      -84.741501      -23.222330
 H         -31.557787      -85.375076      -22.460787
 H         -33.356396      -87.713448      -25.451797
 H         -34.089497      -86.230560      -25.109896
 H         -33.383774      -86.951324      -23.058311
 H         -31.827549      -87.561676      -23.635277
