20
 generated by VMD
 C         -60.777554     -153.282394      -52.312782
 N         -61.090183     -153.629440      -51.280956
 H         -57.749882     -153.672394      -50.984634
 H         -60.508102     -153.063675      -53.348957
 C         -56.677113     -153.446182      -50.946194
 C         -55.972900     -153.709869      -49.630878
 C         -56.328629     -152.179047      -51.718800
 C         -54.441086     -153.523346      -49.781044
 C         -54.877384     -151.838638      -51.633511
 C         -54.100395     -152.171799      -50.381168
 H         -56.366379     -154.673859      -49.186329
 H         -56.196606     -153.030457      -48.828392
 H         -56.615532     -152.266388      -52.763927
 H         -56.937359     -151.336853      -51.254040
 H         -53.966114     -154.230148      -50.460640
 H         -53.939812     -153.534805      -48.869175
 H         -54.904865     -150.691422      -51.898415
 H         -54.378922     -152.309570      -52.434063
 H         -53.050571     -152.077286      -50.578529
 H         -54.412056     -151.480637      -49.565563
