20
 generated by VMD
 C         -11.995110      -25.595476       -0.278695
 N         -12.999201      -26.077652       -0.188962
 H          -9.406459      -26.825632       -2.634869
 H          -9.450764      -25.816612       -4.122181
 C          -8.798380      -26.217777       -3.339030
 C          -7.702102      -27.135084       -3.884437
 C          -8.145387      -25.067720       -2.548951
 C          -6.792341      -26.381281       -4.916146
 C          -7.202692      -24.261808       -3.506791
 C          -6.129664      -25.203815       -4.214753
 H          -8.230372      -28.002844       -4.400131
 H          -7.085370      -27.653240       -3.198597
 H          -8.914947      -24.371012       -2.223636
 H          -7.708864      -25.404774       -1.567092
 H          -7.313570      -26.207335       -5.842756
 H          -5.965898      -27.040405       -5.179522
 H          -6.615749      -23.503347       -2.961162
 H          -7.805187      -23.795134       -4.325985
 H          -5.769681      -24.564915       -5.039078
 H          -5.289015      -25.533297       -3.539853
