20
 generated by VMD
 C         -60.186638     -157.323776      -56.144417
 N         -59.643936     -158.187241      -56.720123
 H         -60.158985     -157.408585      -52.610130
 H         -60.758549     -156.503647      -55.700741
 C         -59.431156     -158.187653      -52.794399
 C         -57.971455     -157.800980      -52.302059
 C         -59.607597     -159.618866      -53.224087
 C         -57.709599     -158.729904      -51.095005
 C         -59.325436     -160.435410      -51.965954
 C         -57.963642     -160.245560      -51.387547
 H         -58.041451     -156.744186      -51.901306
 H         -57.337048     -157.974380      -53.107410
 H         -60.602032     -159.938049      -53.597923
 H         -58.904495     -159.940948      -54.052929
 H         -58.227318     -158.529312      -50.212036
 H         -56.620564     -158.496765      -50.843800
 H         -59.539635     -161.476074      -52.248402
 H         -59.951828     -160.246292      -51.140564
 H         -57.864258     -160.767273      -50.518173
 H         -57.296604     -160.612946      -52.206860
