20
 generated by VMD
 C         -12.562360      -27.786257       -4.647394
 N         -13.140703      -27.881075       -5.595447
 H         -10.984360      -30.837751       -2.880243
 H         -10.909798      -29.169941       -3.776577
 C         -10.369262      -30.024443       -3.402935
 C          -9.643297      -30.690432       -4.600452
 C          -9.352692      -29.384470       -2.411943
 C          -8.690265      -29.724985       -5.316633
 C          -8.379230      -28.330679       -3.140836
 C          -7.721278      -28.927252       -4.411380
 H         -10.424262      -31.019947       -5.280640
 H          -8.964024      -31.535387       -4.242167
 H          -9.873665      -28.894156       -1.586226
 H          -8.671457      -30.126665       -1.992795
 H          -9.327317      -28.911194       -5.768065
 H          -8.064544      -30.244432       -6.074109
 H          -7.734077      -27.965477       -2.395087
 H          -9.140072      -27.581823       -3.425499
 H          -7.190757      -28.208384       -5.044238
 H          -6.999283      -29.662992       -4.132730
