20
 generated by VMD
 C         -47.766644     -136.824020      -46.074226
 N         -47.121143     -136.569061      -46.984020
 H         -50.496746     -136.006226      -45.069836
 H         -48.536880     -137.163452      -45.443291
 C         -51.067665     -136.937759      -44.922813
 C         -51.356613     -137.935410      -46.024200
 C         -52.032940     -136.769150      -43.857944
 C         -52.158127     -139.087891      -45.581261
 C         -52.652927     -138.052994      -43.413937
 C         -53.267548     -138.905991      -44.588711
 H         -50.409626     -138.288239      -46.545086
 H         -51.844807     -137.381088      -46.758343
 H         -51.383080     -136.424484      -43.077553
 H         -52.712280     -136.023560      -44.261116
 H         -51.437115     -139.760681      -45.018860
 H         -52.498821     -139.509888      -46.521465
 H         -53.587139     -137.889374      -42.780960
 H         -51.909546     -138.690811      -42.881481
 H         -53.627525     -139.986633      -44.411320
 H         -54.054886     -138.332565      -45.103062
