20
 generated by VMD
 C         -11.619902      -26.806122       -0.727122
 N         -12.546156      -26.388554       -1.163826
 H         -10.377070      -26.125340       -3.958120
 H          -9.205915      -25.484110       -5.079458
 C          -9.296487      -26.051432       -4.140828
 C          -8.597651      -27.402964       -4.232425
 C          -8.653150      -25.152592       -3.132487
 C          -7.042503      -27.352072       -4.343585
 C          -7.161569      -24.973497       -3.381523
 C          -6.386442      -26.254158       -3.420554
 H          -9.121065      -27.888353       -5.118837
 H          -8.781207      -27.853424       -3.239937
 H          -9.026912      -24.106808       -3.075232
 H          -8.763733      -25.599550       -2.201195
 H          -6.849761      -26.867304       -5.352815
 H          -6.490063      -28.317062       -4.216875
 H          -6.713853      -24.285334       -2.635569
 H          -7.181553      -24.480722       -4.378681
 H          -5.335787      -26.124802       -3.729410
 H          -6.433624      -26.690027       -2.429441
