20
 generated by VMD
 C         -22.900595      -55.292892      -15.091444
 N         -22.837091      -55.081047      -16.277903
 H         -19.464785      -54.403576      -15.595336
 H         -22.575287      -55.107285      -14.159487
 C         -19.357885      -55.268951      -14.852204
 C         -18.912786      -55.122997      -13.377582
 C         -19.580568      -56.583557      -15.500170
 C         -19.434544      -56.300861      -12.520648
 C         -19.319159      -57.768005      -14.582747
 C         -19.052378      -57.622005      -13.064454
 H         -19.261005      -54.129879      -13.037439
 H         -17.802979      -55.237331      -13.289522
 H         -20.645796      -56.723949      -15.691759
 H         -18.906441      -56.591908      -16.417562
 H         -20.537210      -56.206329      -12.534271
 H         -19.148590      -56.309021      -11.485944
 H         -18.494631      -58.386288      -15.011032
 H         -20.122566      -58.454643      -14.682795
 H         -19.562487      -58.445637      -12.556844
 H         -17.995514      -57.832375      -12.979079
