20
 generated by VMD
 C         -61.446102     -155.867325      -54.771420
 N         -60.897552     -155.598160      -53.831913
 H         -58.974945     -155.242554      -51.803593
 H         -61.852615     -155.997437      -55.725552
 C         -57.925621     -155.232727      -51.559231
 C         -57.464401     -154.455200      -50.362209
 C         -56.896801     -155.709030      -52.508385
 C         -56.254467     -155.119171      -49.649277
 C         -55.729328     -156.256607      -51.836300
 C         -55.196758     -155.380508      -50.735107
 H         -58.322018     -154.273438      -49.678078
 H         -57.146358     -153.535538      -50.720474
 H         -57.431404     -156.502151      -53.222404
 H         -56.665325     -154.909897      -53.199596
 H         -56.603611     -156.068726      -49.222225
 H         -55.765675     -154.333115      -48.886856
 H         -54.858967     -156.251617      -52.599571
 H         -55.983173     -157.247711      -51.552830
 H         -54.346176     -156.032104      -50.333920
 H         -54.651688     -154.443024      -51.007385
