20
 generated by VMD
 C         -69.154877     -181.284958      -61.253006
 N         -69.797302     -180.363449      -61.040394
 H         -67.217834     -178.840683      -59.524761
 H         -68.454803     -182.088669      -61.408386
 C         -66.214752     -178.352905      -59.795776
 C         -65.670242     -178.485291      -61.151360
 C         -65.615028     -177.474030      -58.781799
 C         -65.127457     -177.106766      -61.664383
 C         -64.882965     -176.316666      -59.441662
 C         -64.115334     -176.489197      -60.824066
 H         -66.600792     -178.684036      -61.775780
 H         -64.943909     -179.400970      -61.253960
 H         -66.289139     -177.147400      -58.039837
 H         -64.809952     -178.118362      -58.266201
 H         -66.082283     -176.345612      -61.835033
 H         -64.833267     -177.244690      -62.754303
 H         -64.282097     -175.983719      -58.571823
 H         -65.607285     -175.492752      -59.649029
 H         -63.703491     -175.572617      -61.143242
 H         -63.284740     -177.196609      -60.554405
