20
 generated by VMD
 C         -20.475536      -61.723873      -17.474485
 N         -19.530268      -61.348011      -16.932732
 H         -21.804306      -65.202110      -16.623728
 H         -21.351034      -62.311031      -17.885275
 C         -22.802441      -64.990807      -16.984152
 C         -23.020760      -64.261093      -18.314522
 C         -23.938086      -65.358147      -16.088381
 C         -24.345297      -64.671165      -18.908573
 C         -25.324474      -65.600044      -16.606380
 C         -25.453821      -64.615639      -17.784693
 H         -22.215481      -64.359894      -19.046516
 H         -23.199818      -63.258163      -18.021269
 H         -23.757122      -66.123825      -15.295218
 H         -24.016197      -64.472862      -15.442076
 H         -24.392008      -65.623817      -19.366472
 H         -24.671116      -64.072380      -19.784729
 H         -26.043098      -65.385475      -15.821393
 H         -25.478769      -66.612389      -16.937702
 H         -26.472040      -64.818390      -18.169477
 H         -25.607656      -63.618229      -17.453960
