20
 generated by VMD
 C         -25.705025      -71.640259      -16.922905
 N         -26.532494      -72.356667      -16.537989
 H         -24.429914      -69.143021      -18.652407
 H         -25.021280      -70.929573      -17.276754
 C         -24.701698      -69.493027      -19.656002
 C         -24.031103      -70.636963      -20.430803
 C         -25.807253      -68.685570      -20.373507
 C         -25.072109      -71.474350      -21.117399
 C         -26.908075      -69.551033      -21.234243
 C         -25.957212      -70.491516      -22.046949
 H         -23.404026      -71.080284      -19.676569
 H         -23.282724      -70.196449      -21.021017
 H         -26.277996      -68.121712      -19.564035
 H         -25.363317      -67.970665      -20.980455
 H         -25.781239      -72.054298      -20.516388
 H         -24.679398      -72.126381      -21.931955
 H         -27.472216      -68.890457      -21.919479
 H         -27.485403      -70.036667      -20.469545
 H         -26.525337      -71.186752      -22.754755
 H         -25.439528      -69.844154      -22.775621
