20
 generated by VMD
 C         -12.621387      -30.253183       -8.103473
 N         -13.123530      -30.599895       -7.168926
 H         -11.236599      -30.487827       -5.385405
 H         -10.642128      -30.810570       -3.796265
 C         -10.905573      -31.283712       -4.751887
 C          -9.617182      -31.770414       -5.272107
 C         -12.004941      -32.314175       -4.622267
 C          -9.011724      -33.060986       -4.623209
 C         -11.435077      -33.550991       -3.955201
 C         -10.156210      -34.114868       -4.516855
 H          -8.853992      -30.944151       -5.181746
 H          -9.721221      -32.081440       -6.266185
 H         -12.868995      -31.917494       -4.044611
 H         -12.351132      -32.609623       -5.635993
 H          -8.672939      -32.735184       -3.595573
 H          -8.100364      -33.386246       -5.231634
 H         -12.231986      -34.222363       -4.029869
 H         -11.207123      -33.300373       -2.875592
 H          -9.830605      -35.004196       -3.974452
 H         -10.452344      -34.362431       -5.599533
