20
 generated by VMD
 C         -27.604317      -81.351807      -27.026602
 N         -28.385494      -81.883583      -27.661526
 H         -30.422514      -83.693214      -25.909880
 H         -26.677448      -80.787834      -26.639606
 C         -30.884888      -84.355202      -25.146133
 C         -30.592983      -84.179138      -23.624462
 C         -31.745068      -85.400581      -25.808249
 C         -31.793993      -84.627579      -22.886925
 C         -32.722614      -86.032036      -24.739246
 C         -32.321899      -86.024071      -23.307358
 H         -30.397594      -83.122559      -23.420248
 H         -29.683142      -84.799545      -23.481445
 H         -32.330608      -85.135536      -26.786095
 H         -31.039530      -86.187950      -26.201006
 H         -32.689899      -83.979248      -22.956560
 H         -31.534391      -84.741600      -21.805712
 H         -32.902149      -87.056175      -25.170938
 H         -33.667068      -85.445534      -24.942513
 H         -33.227360      -86.364670      -22.694128
 H         -31.588825      -86.806244      -23.175219
