20
 generated by VMD
 C          -9.105656      -23.818705        2.470094
 N          -8.625171      -24.817179        2.629402
 H          -8.319026      -23.382982       -1.140569
 H          -9.168975      -22.617010       -2.443945
 C          -8.109977      -22.981661       -2.167133
 C          -7.645895      -24.111753       -3.002158
 C          -7.155006      -21.873600       -2.145041
 C          -7.401864      -23.578022       -4.425647
 C          -6.907065      -21.267723       -3.510166
 C          -6.490818      -22.345217       -4.453886
 H          -8.349173      -24.919285       -2.970658
 H          -6.614226      -24.517834       -2.669381
 H          -7.540045      -21.099342       -1.508334
 H          -6.234942      -22.283230       -1.708717
 H          -8.313932      -23.107294       -4.825404
 H          -6.902042      -24.343040       -5.058953
 H          -6.155030      -20.489382       -3.521180
 H          -7.878180      -20.879023       -3.796777
 H          -6.464464      -22.026073       -5.475437
 H          -5.473223      -22.589493       -4.193455
