20
 generated by VMD
 C         -21.621483      -66.602524      -16.785322
 N         -20.927601      -66.922722      -15.896950
 H         -23.955936      -64.819611      -17.903185
 H         -22.260239      -66.432915      -17.568066
 C         -24.650852      -65.388618      -18.604538
 C         -24.033609      -65.932655      -19.874847
 C         -25.917442      -65.950897      -17.992859
 C         -24.358738      -67.396942      -20.183401
 C         -25.858641      -67.512512      -18.104740
 C         -25.689703      -68.009918      -19.522022
 H         -22.953293      -65.797623      -19.826935
 H         -24.346865      -65.260872      -20.706020
 H         -25.997923      -65.573799      -16.933289
 H         -26.838387      -65.749672      -18.520266
 H         -23.527828      -68.032768      -19.689493
 H         -24.311146      -67.608559      -21.294315
 H         -26.828062      -68.007706      -17.715014
 H         -25.062416      -67.972298      -17.494146
 H         -25.618469      -69.094261      -19.599470
 H         -26.580502      -67.766289      -20.123960
