20
 generated by VMD
 C         -59.112431     -168.321640      -55.153400
 N         -58.090607     -168.874664      -54.869247
 H         -62.628117     -169.140533      -55.757778
 H         -60.026825     -167.814117      -55.463356
 C         -62.531292     -168.244019      -56.296951
 C         -62.716831     -168.155090      -57.841431
 C         -62.807861     -166.944382      -55.662373
 C         -64.097275     -167.608719      -58.245663
 C         -64.183121     -166.276245      -55.986610
 C         -64.350220     -166.221497      -57.598690
 H         -62.527599     -169.194336      -58.263073
 H         -61.991749     -167.516876      -58.150154
 H         -62.811096     -166.981171      -54.509830
 H         -61.960415     -166.282806      -55.806026
 H         -64.757294     -168.363907      -57.792896
 H         -64.070923     -167.699020      -59.344749
 H         -64.222031     -165.216293      -55.682114
 H         -65.088799     -166.937683      -55.701725
 H         -65.252037     -165.632690      -57.845924
 H         -63.424633     -165.603760      -57.896267
