20
 generated by VMD
 C         -60.075714     -153.297943      -51.679058
 N         -60.267574     -152.181915      -51.418755
 H         -57.211849     -153.828888      -49.731731
 H         -59.876366     -154.304077      -52.010921
 C         -56.456734     -153.124969      -50.055000
 C         -55.109924     -153.189270      -49.501789
 C         -56.803009     -151.887161      -50.729515
 C         -53.994923     -152.782593      -50.321217
 C         -55.590843     -151.194794      -51.362598
 C         -54.153370     -151.334457      -50.768883
 H         -54.990799     -154.099380      -48.982937
 H         -54.955948     -152.436584      -48.728001
 H         -57.507061     -152.055756      -51.524372
 H         -57.225487     -151.155884      -50.011532
 H         -54.082962     -153.351410      -51.275227
 H         -53.024204     -152.902481      -49.820156
 H         -55.896309     -150.178940      -51.452831
 H         -55.406178     -151.470718      -52.388584
 H         -53.452091     -151.152573      -51.580307
 H         -54.159420     -150.610626      -49.970318
