20
 generated by VMD
 C         -60.755096     -153.292862      -52.244972
 N         -61.181320     -153.829193      -51.358242
 H         -57.426357     -154.040741      -51.543552
 H         -60.345097     -152.936203      -53.183598
 C         -56.704769     -153.416794      -51.050533
 C         -56.165703     -153.757034      -49.628025
 C         -56.255928     -152.203461      -51.747940
 C         -54.579742     -153.604919      -49.885971
 C         -54.763332     -151.955795      -51.669594
 C         -54.133575     -152.249893      -50.292427
 H         -56.466530     -154.789566      -49.303066
 H         -56.532951     -152.899292      -49.064240
 H         -56.562546     -152.299408      -52.815948
 H         -56.842087     -151.327545      -51.475464
 H         -54.204540     -154.508820      -50.447803
 H         -54.060123     -153.851929      -48.916931
 H         -54.418816     -151.020706      -51.933224
 H         -54.419983     -152.740494      -52.363136
 H         -53.085350     -152.164352      -50.241638
 H         -54.352283     -151.388748      -49.574432
