20
 generated by VMD
 C         -20.588381      -52.273129       -9.681774
 N         -21.223330      -51.918812      -10.563092
 H         -18.492018      -49.708664      -10.743810
 H         -20.286119      -52.736702       -8.566235
 C         -17.918640      -49.750114      -11.674546
 C         -17.370834      -51.091095      -12.170654
 C         -17.397461      -48.513645      -12.338498
 C         -16.884266      -51.155399      -13.628372
 C         -16.643158      -48.568062      -13.643307
 C         -16.018499      -49.944202      -13.904963
 H         -18.275194      -51.730904      -12.055222
 H         -16.635017      -51.518719      -11.527173
 H         -18.187462      -47.758171      -12.461576
 H         -16.676861      -48.179146      -11.557043
 H         -17.760342      -51.199512      -14.301304
 H         -16.259851      -52.019722      -13.977839
 H         -15.923098      -47.755424      -13.759000
 H         -17.327482      -48.353622      -14.556694
 H         -15.603661      -50.041817      -14.924703
 H         -15.202456      -50.012531      -13.168938
