20
 generated by VMD
 C         -11.025816      -34.115211       -8.427350
 N         -11.100814      -33.244564       -9.171032
 H         -11.548322      -37.944973       -8.012877
 H         -12.294047      -37.389931       -6.468921
 C         -12.403559      -38.079071       -7.310380
 C         -12.522008      -39.412479       -6.579560
 C         -13.704732      -37.745949       -8.063498
 C         -13.638003      -39.392994       -5.582875
 C         -14.911891      -37.799282       -7.182769
 C         -14.972373      -39.105595       -6.411489
 H         -11.555234      -39.678116       -6.179614
 H         -12.685749      -40.215839       -7.308467
 H         -13.689759      -36.805607       -8.552298
 H         -13.799984      -38.513485       -8.887288
 H         -13.485125      -38.634670       -4.838861
 H         -13.740767      -40.283291       -4.998276
 H         -15.839254      -37.643475       -7.716676
 H         -14.833779      -37.008263       -6.349896
 H         -15.831749      -38.987499       -5.695705
 H         -15.183511      -39.991787       -7.049157
