20
 generated by VMD
 C         -80.155991     -206.887924      -74.040871
 N         -80.508499     -206.415161      -75.038902
 H         -77.326271     -207.167023      -72.772148
 H         -79.703323     -207.477249      -73.198135
 C         -76.763329     -207.420654      -71.854935
 C         -75.456314     -206.787064      -71.495094
 C         -77.279778     -208.572052      -71.048462
 C         -75.525711     -206.413391      -69.998024
 C         -77.131264     -208.326797      -69.573807
 C         -75.806580     -207.671524      -69.153969
 H         -74.993454     -205.930939      -72.020935
 H         -74.741516     -207.636108      -71.652473
 H         -78.248878     -208.880997      -71.459671
 H         -76.604973     -209.340591      -71.272675
 H         -76.373238     -205.703339      -69.804024
 H         -74.557259     -206.025970      -69.645515
 H         -77.388878     -209.252426      -69.103142
 H         -77.828438     -207.582108      -69.238579
 H         -75.894066     -207.324539      -68.090485
 H         -75.018921     -208.537155      -69.088692
