20
 generated by VMD
 C         -28.436850      -84.462845      -26.791183
 N         -27.785280      -83.525925      -26.782864
 H         -31.398806      -84.526337      -26.195320
 H         -29.242449      -85.286789      -26.701542
 C         -31.477175      -85.445343      -25.742290
 C         -31.508724      -85.448975      -24.325373
 C         -31.915438      -86.629868      -26.528088
 C         -32.825733      -86.023689      -23.806372
 C         -33.298847      -86.954262      -26.175819
 C         -33.245674      -87.355957      -24.574137
 H         -31.312963      -84.405724      -23.979719
 H         -30.724133      -86.122192      -23.908537
 H         -31.849388      -86.419388      -27.644905
 H         -31.230734      -87.464264      -26.356041
 H         -33.615566      -85.295784      -23.682768
 H         -32.612679      -86.194679      -22.660612
 H         -33.574799      -87.860077      -26.720854
 H         -34.061440      -86.282349      -26.309353
 H         -34.161514      -87.731415      -24.183752
 H         -32.544266      -88.159424      -24.512909
