20
 generated by VMD
 C         -61.407646     -154.716278      -53.855957
 N         -61.841053     -155.180923      -52.917469
 H         -57.989498     -154.751129      -52.445976
 H         -60.943455     -154.252640      -54.672398
 C         -57.125610     -154.690399      -51.793583
 C         -57.334431     -154.189240      -50.330929
 C         -55.887089     -154.279587      -52.475063
 C         -56.033478     -154.646576      -49.536583
 C         -54.768242     -154.676926      -51.577583
 C         -54.816875     -154.229507      -50.105171
 H         -58.297852     -154.722397      -50.088188
 H         -57.286625     -153.115677      -50.241570
 H         -55.810184     -154.888763      -53.373352
 H         -55.752380     -153.280807      -52.833065
 H         -55.931526     -155.730011      -49.450603
 H         -56.178558     -154.252899      -48.507954
 H         -53.839584     -154.271332      -52.079517
 H         -54.590519     -155.753723      -51.634155
 H         -53.856358     -154.746399      -49.687336
 H         -54.812820     -153.169189      -50.110645
