20
 generated by VMD
 C          -1.283738      -13.357944        0.788123
 N          -0.388080      -13.531762        0.133929
 H          -4.362371      -13.577773        1.852877
 H          -5.523590      -13.900512        0.648710
 C          -5.049044      -14.338210        1.489965
 C          -6.280334      -14.605387        2.336388
 C          -4.337523      -15.571847        1.095735
 C          -7.273319      -15.553947        1.582182
 C          -5.330630      -16.497026        0.363730
 C          -6.559008      -16.869843        1.159436
 H          -6.780117      -13.653677        2.478385
 H          -5.925756      -15.099580        3.263004
 H          -3.452759      -15.328221        0.441964
 H          -3.979300      -16.094130        2.076537
 H          -7.672641      -15.115155        0.655387
 H          -8.097106      -15.770819        2.257827
 H          -4.739783      -17.386139        0.179985
 H          -5.587608      -16.044670       -0.600226
 H          -7.273509      -17.388172        0.520763
 H          -6.353917      -17.428045        2.042598
