20
 generated by VMD
 C         -49.285801     -141.184723      -45.712635
 N         -48.590908     -141.506729      -44.888763
 H         -51.605598     -138.279648      -46.123161
 H         -50.014534     -141.049820      -46.455601
 C         -52.135975     -139.252777      -46.334728
 C         -52.708363     -139.405258      -47.675213
 C         -52.893200     -139.959808      -45.169388
 C         -53.302761     -140.845871      -48.008591
 C         -53.332664     -141.393982      -45.586048
 C         -54.087555     -141.304855      -46.853081
 H         -51.966431     -139.302643      -48.434113
 H         -53.450371     -138.595596      -47.778698
 H         -52.361954     -139.874649      -44.243359
 H         -53.722912     -139.372772      -45.022617
 H         -52.453186     -141.515869      -48.483356
 H         -54.091434     -140.819672      -48.774506
 H         -53.781055     -141.801163      -44.729317
 H         -52.536243     -142.150650      -45.626617
 H         -54.585136     -142.265305      -47.040459
 H         -54.959034     -140.524506      -46.715340
