20
 generated by VMD
 C         -19.652189      -60.553757      -17.177111
 N         -19.323551      -60.743603      -16.067032
 H         -23.233105      -61.379196      -17.806498
 H         -19.881016      -60.622375      -18.301304
 C         -23.105972      -62.409729      -17.524778
 C         -23.937084      -63.240955      -18.477211
 C         -23.160048      -62.636879      -16.079952
 C         -24.455463      -64.533569      -17.942863
 C         -23.290651      -64.099602      -15.791376
 C         -24.458893      -64.769066      -16.438524
 H         -23.438887      -63.373451      -19.490997
 H         -24.843441      -62.554985      -18.582970
 H         -22.252039      -62.317749      -15.524964
 H         -24.048571      -62.018913      -15.808856
 H         -23.660368      -65.132042      -18.460846
 H         -25.431381      -64.642845      -18.403519
 H         -23.146292      -64.299782      -14.690500
 H         -22.361431      -64.668358      -16.090448
 H         -24.388235      -65.824097      -16.192949
 H         -25.375923      -64.393410      -15.946539
