20
 generated by VMD
 C          -1.416246      -11.705900        1.571853
 N          -1.101314      -12.355601        0.695658
 H          -3.981710      -12.829326        0.566900
 H          -5.621777      -13.067405        0.901385
 C          -4.678674      -13.630636        0.949284
 C          -4.468435      -13.909085        2.413340
 C          -4.786954      -14.884864        0.194995
 C          -5.650073      -14.657260        2.938602
 C          -5.944401      -15.856465        0.699585
 C          -5.807097      -15.995459        2.239125
 H          -4.289807      -13.021406        3.026253
 H          -3.627721      -14.586029        2.544240
 H          -4.900435      -14.623998       -0.926244
 H          -3.876132      -15.563792        0.289992
 H          -6.556454      -14.086593        2.997359
 H          -5.397749      -14.895546        3.967822
 H          -5.889417      -16.785364        0.168333
 H          -6.869578      -15.343987        0.442141
 H          -6.729506      -16.505867        2.613017
 H          -4.928510      -16.682920        2.503407
