20
 generated by VMD
 C         -47.325211     -138.584122      -45.674496
 N         -46.998188     -138.351654      -46.755619
 H         -50.521446     -138.162415      -44.866611
 H         -47.643837     -139.101212      -44.751736
 C         -51.523335     -138.547195      -45.068993
 C         -51.661644     -139.067490      -46.384411
 C         -52.812481     -138.195786      -44.276920
 C         -52.883389     -140.018051      -46.685543
 C         -53.935310     -139.267044      -44.507759
 C         -54.192059     -139.521011      -46.000938
 H         -50.704502     -139.575607      -46.583012
 H         -51.598637     -138.288300      -47.221825
 H         -52.657986     -138.124374      -43.210125
 H         -53.207241     -137.243866      -44.629906
 H         -52.622303     -141.007172      -46.235657
 H         -53.105919     -140.320801      -47.764702
 H         -54.818104     -139.022324      -43.812302
 H         -53.686607     -140.231674      -44.166409
 H         -55.148987     -140.295425      -46.040710
 H         -54.407150     -138.503479      -46.379154
