20
 generated by VMD
 C         -79.237511     -207.125671      -75.313263
 N         -78.780876     -207.133881      -76.368866
 H         -78.560738     -210.518326      -73.320770
 H         -79.627159     -207.204605      -74.259300
 C         -78.272278     -210.200439      -72.337997
 C         -77.102394     -209.185532      -72.264709
 C         -78.430161     -211.161697      -71.223282
 C         -76.892448     -208.539108      -70.819893
 C         -78.412857     -210.455902      -69.829826
 C         -77.065834     -209.677063      -69.713791
 H         -77.436989     -208.344009      -72.872116
 H         -76.195175     -209.508057      -72.766228
 H         -79.407478     -211.682129      -71.174545
 H         -77.667961     -211.886719      -71.463554
 H         -77.508018     -207.686737      -70.605461
 H         -75.841476     -208.133911      -70.764275
 H         -78.603210     -211.200195      -69.107841
 H         -79.174942     -209.669846      -69.549919
 H         -76.910606     -209.376953      -68.649300
 H         -76.201157     -210.333527      -69.945587
