20
 generated by VMD
 C         -68.738403     -185.706635      -66.425011
 N         -68.111977     -186.271606      -67.217590
 H         -69.664619     -183.595383      -63.937649
 H         -69.408768     -185.218445      -65.678276
 C         -69.435921     -184.235947      -63.066879
 C         -70.587791     -184.822693      -62.380463
 C         -67.908157     -184.485199      -62.645523
 C         -70.357315     -185.801773      -61.238312
 C         -67.920845     -185.455383      -61.475769
 C         -69.046181     -186.540497      -61.516300
 H         -71.273552     -185.382767      -63.132282
 H         -71.269814     -184.058517      -61.959087
 H         -67.358887     -184.867508      -63.579903
 H         -67.450249     -183.496765      -62.435349
 H         -71.151497     -186.578354      -61.145039
 H         -70.384026     -185.150848      -60.349964
 H         -67.854843     -184.874588      -60.481934
 H         -66.941513     -186.045792      -61.552532
 H         -69.109413     -186.887421      -62.480190
 H         -68.807709     -187.404663      -60.997410
