20
 generated by VMD
 C         -58.641579     -168.516434      -54.938515
 N         -57.514786     -168.669266      -54.947254
 H         -62.244698     -168.434158      -55.642334
 H         -59.705097     -168.393463      -54.914005
 C         -62.341782     -167.594254      -56.270138
 C         -62.701942     -167.847931      -57.641872
 C         -62.834122     -166.329681      -55.680210
 C         -64.149956     -167.599472      -58.043499
 C         -64.388382     -166.086899      -55.970222
 C         -64.549362     -166.237625      -57.481419
 H         -62.519356     -168.776901      -57.950291
 H         -61.996113     -167.227219      -58.334827
 H         -62.848637     -166.471024      -54.573200
 H         -62.235027     -165.418228      -56.016804
 H         -64.872192     -168.363739      -57.747524
 H         -64.240181     -167.629807      -59.142525
 H         -64.601822     -165.084076      -55.692684
 H         -65.057281     -166.700500      -55.373440
 H         -65.673157     -166.052567      -57.658997
 H         -64.059410     -165.466248      -58.141560
