20
 generated by VMD
 C         -79.748055     -205.544754      -72.319893
 N         -80.082680     -206.622589      -72.330894
 H         -77.617485     -204.663513      -71.182800
 H         -79.665688     -204.466827      -72.199554
 C         -76.609451     -205.000229      -71.078712
 C         -75.427162     -204.107468      -71.392090
 C         -76.330368     -206.419601      -70.659050
 C         -74.576340     -203.963989      -70.045570
 C         -75.621361     -206.257187      -69.195213
 C         -74.418617     -205.260605      -69.218185
 H         -75.766266     -203.078506      -71.666161
 H         -74.849411     -204.501572      -72.283852
 H         -77.244247     -206.983597      -70.437683
 H         -75.661530     -207.071671      -71.231590
 H         -75.134804     -203.240021      -69.465958
 H         -73.535416     -203.615341      -70.325447
 H         -75.292595     -207.207413      -68.799400
 H         -76.461899     -205.994568      -68.413902
 H         -74.136147     -205.131348      -68.209160
 H         -73.544472     -205.703705      -69.752113
