20
 generated by VMD
 C         -49.065144     -126.804443      -38.761524
 N         -49.911968     -127.486526      -38.417816
 H         -46.470043     -124.293343      -38.942966
 H         -48.303082     -126.249702      -39.243889
 C         -45.630489     -123.861420      -39.467255
 C         -44.547722     -124.789574      -39.795872
 C         -45.963409     -122.618942      -40.340488
 C         -43.826023     -124.641327      -41.203453
 C         -45.223572     -122.522385      -41.659790
 C         -43.935452     -123.184105      -41.717819
 H         -44.691868     -125.889870      -39.691212
 H         -43.823212     -124.664993      -38.970581
 H         -47.115150     -122.510529      -40.477127
 H         -45.667652     -121.797020      -39.693459
 H         -44.393993     -125.275711      -41.972984
 H         -42.771915     -125.009758      -41.143990
 H         -45.074604     -121.472855      -41.927429
 H         -45.737373     -122.952141      -42.572365
 H         -43.505268     -123.098923      -42.649452
 H         -43.290989     -122.674484      -41.006172
