20
 generated by VMD
 C         -15.500198      -47.632362       -6.281091
 N         -15.641902      -46.611126       -5.844344
 H         -16.606901      -47.338799       -9.909367
 H         -15.194901      -47.091728      -11.131985
 C         -16.261032      -46.908314      -10.857806
 C         -16.476059      -45.357113      -10.862692
 C         -17.096783      -47.385399      -12.015468
 C         -16.157234      -44.566189      -12.141451
 C         -16.929850      -46.607365      -13.314047
 C         -17.057371      -45.079872      -13.230190
 H         -15.866706      -44.906349      -10.080488
 H         -17.499434      -45.213200      -10.600715
 H         -16.935377      -48.417618      -12.166661
 H         -18.151932      -47.336281      -11.754214
 H         -15.099259      -44.726376      -12.352448
 H         -16.245512      -43.491127      -12.082984
 H         -17.643822      -46.960842      -14.050601
 H         -15.894613      -46.907604      -13.761371
 H         -16.909510      -44.670719      -14.253529
 H         -18.120623      -44.772614      -13.036924
