20
 generated by VMD
 C         -11.221259      -33.224789       -8.578762
 N         -10.654527      -33.895786       -9.231808
 H         -12.694992      -34.237041       -6.738676
 H         -13.119641      -34.729813       -5.157134
 C         -12.876875      -35.122368       -6.165796
 C         -11.666495      -36.011353       -6.297914
 C         -14.101706      -35.886421       -6.655477
 C         -11.818748      -37.391685       -5.581810
 C         -14.329525      -37.200535       -5.912971
 C         -13.146616      -38.125484       -5.844265
 H         -10.802541      -35.470806       -5.805876
 H         -11.406154      -36.211693       -7.344109
 H         -14.963049      -35.248962       -6.397202
 H         -14.017434      -36.116142       -7.751260
 H         -11.833257      -37.217812       -4.461302
 H         -10.968957      -38.090343       -5.809555
 H         -15.187606      -37.716324       -6.247115
 H         -14.494727      -36.855732       -4.816564
 H         -13.242008      -38.930378       -5.083087
 H         -13.119861      -38.532509       -6.822289
