20
 generated by VMD
 C         -70.196068     -181.372696      -62.696209
 N         -71.028183     -180.634354      -63.125702
 H         -67.244911     -181.883743      -60.800358
 H         -69.407524     -181.989685      -62.264473
 C         -66.630791     -180.975540      -60.732204
 C         -65.147896     -181.050476      -60.364502
 C         -67.319473     -179.610703      -60.564327
 C         -64.357796     -179.700317      -60.757187
 C         -66.385681     -178.371094      -60.961815
 C         -65.025665     -178.451355      -60.321388
 H         -64.722534     -181.862793      -60.886139
 H         -65.044800     -181.335602      -59.364086
 H         -68.285408     -179.723892      -61.130611
 H         -67.570839     -179.525284      -59.495182
 H         -64.152344     -179.928955      -61.801247
 H         -63.358368     -179.673386      -60.210567
 H         -66.831360     -177.444946      -60.634312
 H         -66.200790     -178.281250      -62.020020
 H         -64.324379     -177.686615      -60.600273
 H         -65.069153     -178.312378      -59.230991
