20
 generated by VMD
 C         -11.950068      -25.570208       -0.756909
 N         -12.541786      -25.588127        0.176160
 H          -8.436232      -26.723862       -1.847192
 H          -9.306134      -25.795334       -3.144889
 C          -8.334113      -26.034967       -2.728693
 C          -7.392625      -26.832539       -3.623998
 C          -7.658944      -24.771040       -2.238605
 C          -7.106232      -26.016689       -4.827435
 C          -7.376716      -23.914967       -3.538033
 C          -6.439625      -24.707661       -4.494233
 H          -7.869907      -27.852419       -3.840559
 H          -6.522980      -27.131668       -2.995929
 H          -8.406545      -24.225653       -1.633702
 H          -6.806929      -24.891127       -1.551976
 H          -7.981859      -25.866007       -5.471398
 H          -6.357567      -26.461412       -5.472880
 H          -6.879444      -23.008049       -3.205692
 H          -8.355458      -23.714748       -4.005003
 H          -6.425622      -24.092155       -5.401242
 H          -5.435743      -24.920555       -4.107018
