20
 generated by VMD
 C         -40.428898     -118.756615      -35.413185
 N         -39.517746     -118.202797      -34.997028
 H         -43.396454     -116.688728      -36.179680
 H         -41.085850     -119.523331      -35.713440
 C         -43.814041     -116.773270      -37.153259
 C         -42.920528     -117.373688      -38.211685
 C         -45.221458     -116.327766      -37.343128
 C         -43.728699     -118.281189      -39.123589
 C         -45.929958     -117.049232      -38.455719
 C         -44.984318     -117.330009      -39.639442
 H         -42.024239     -117.901527      -37.737957
 H         -42.647003     -116.411339      -38.809776
 H         -45.803791     -116.370331      -36.388172
 H         -45.097446     -115.302574      -37.628197
 H         -44.050270     -119.102158      -38.492817
 H         -43.213184     -118.587303      -40.027897
 H         -46.858051     -116.517891      -38.785149
 H         -46.388020     -117.849945      -38.030327
 H         -45.504440     -117.906860      -40.475956
 H         -44.649250     -116.414398      -40.017052
