20
 generated by VMD
 C         -78.467834     -209.306396      -77.007660
 N         -78.208527     -209.255005      -78.147049
 H         -79.050400     -211.184464      -73.985466
 H         -78.806610     -209.312988      -75.944389
 C         -79.068581     -211.892807      -73.099937
 C         -77.924583     -212.084641      -72.169785
 C         -80.214569     -212.786713      -72.830261
 C         -78.244209     -212.484726      -70.687141
 C         -80.569832     -213.089127      -71.347336
 C         -79.262466     -213.557495      -70.561478
 H         -77.332359     -211.109085      -72.027466
 H         -77.334892     -212.870972      -72.687454
 H         -81.071663     -212.389175      -73.406700
 H         -80.116142     -213.761353      -73.389771
 H         -78.778214     -211.688400      -70.185951
 H         -77.251564     -212.638626      -70.211914
 H         -81.350418     -213.868942      -71.324379
 H         -80.854645     -212.055527      -70.877548
 H         -79.569672     -213.563080      -69.472969
 H         -78.939186     -214.557373      -70.998352
