20
 generated by VMD
 C          -3.602934      -17.518934        2.064246
 N          -3.126659      -18.463121        2.422888
 H          -5.673438      -20.520580        0.489842
 H          -6.127692      -20.975864       -1.274128
 C          -6.176430      -20.210800       -0.451004
 C          -5.365096      -18.959562       -0.932842
 C          -7.683900      -20.027521       -0.148932
 C          -6.220100      -18.449982       -2.193474
 C          -8.429160      -19.339945       -1.277043
 C          -7.651159      -18.156355       -1.774212
 H          -4.353693      -19.131136       -1.307736
 H          -5.375976      -18.215845       -0.156331
 H          -8.181104      -21.092459        0.063337
 H          -7.767466      -19.408773        0.800517
 H          -6.281461      -19.324152       -2.945367
 H          -5.762622      -17.563635       -2.648047
 H          -9.451052      -19.135174       -0.966034
 H          -8.465417      -20.025137       -2.128350
 H          -8.203928      -17.595795       -2.548729
 H          -7.553370      -17.434532       -0.945382
