20
 generated by VMD
 C         -80.202896     -205.535492      -72.204140
 N         -79.984245     -206.676178      -72.170471
 H         -77.325676     -204.301239      -71.136490
 H         -80.468102     -204.535583      -72.015663
 C         -76.387383     -204.837952      -71.254036
 C         -75.150970     -204.009384      -71.283951
 C         -76.310257     -206.148361      -70.652878
 C         -74.643257     -203.841965      -69.857002
 C         -75.561844     -206.038940      -69.253853
 C         -74.251183     -205.240433      -69.317886
 H         -75.270645     -203.025391      -71.800194
 H         -74.391090     -204.522308      -71.788155
 H         -77.226013     -206.746063      -70.467926
 H         -75.707909     -206.797424      -71.225983
 H         -75.387543     -203.439621      -69.106117
 H         -73.694733     -203.304794      -69.779694
 H         -75.443596     -207.090866      -68.788551
 H         -76.191017     -205.491440      -68.604393
 H         -74.023727     -205.172989      -68.218163
 H         -73.417854     -205.602509      -69.887985
