20
 generated by VMD
 C         -10.596443      -25.561392       -0.828315
 N         -11.195146      -24.663040       -0.561079
 H          -6.599337      -25.439785       -0.922867
 H          -8.336180      -25.321711       -1.260936
 C          -7.337697      -25.196669       -1.707836
 C          -7.115248      -26.072821       -3.019394
 C          -7.021958      -23.713436       -1.955363
 C          -7.945446      -25.517717       -4.264398
 C          -7.871305      -23.224579       -3.200775
 C          -7.508720      -24.087681       -4.458122
 H          -7.377680      -27.116428       -2.835877
 H          -5.994389      -26.125736       -3.264531
 H          -7.295078      -23.120361       -1.077686
 H          -5.944332      -23.611486       -2.032057
 H          -9.020261      -25.613483       -4.206865
 H          -7.658608      -26.057413       -5.139541
 H          -7.655475      -22.182140       -3.521676
 H          -8.932556      -23.358685       -2.956132
 H          -8.079149      -23.679628       -5.307785
 H          -6.418588      -23.957788       -4.532401
