20
 generated by VMD
 C         -79.790276     -206.972168      -74.224579
 N         -80.400688     -206.082504      -74.687767
 H         -78.139511     -206.620743      -71.729279
 H         -79.045609     -207.679962      -73.941231
 C         -77.161148     -207.235916      -71.664940
 C         -75.791451     -206.436554      -71.583778
 C         -77.138199     -208.492508      -70.747719
 C         -75.370888     -206.168503      -70.106659
 C         -76.890228     -208.210876      -69.294182
 C         -75.527786     -207.471558      -69.356102
 H         -75.944824     -205.558487      -72.230247
 H         -75.026443     -207.065094      -72.068863
 H         -78.130348     -208.978546      -70.722733
 H         -76.450638     -209.249283      -71.030563
 H         -76.165283     -205.476913      -69.721642
 H         -74.349953     -205.874054      -69.890099
 H         -76.865013     -209.014923      -68.580055
 H         -77.710907     -207.526489      -68.963181
 H         -75.383636     -207.360046      -68.282265
 H         -74.782990     -208.155090      -69.770927
