20
 generated by VMD
 C          -6.569613      -22.552399        1.977214
 N          -6.220515      -22.903961        2.961203
 H          -5.676611      -19.993032       -0.342516
 H          -7.091713      -20.833630       -0.266920
 C          -6.452968      -20.365042       -0.974883
 C          -5.897972      -21.450636       -1.956881
 C          -7.192175      -19.288500       -1.758282
 C          -7.044893      -22.097635       -2.869575
 C          -8.253118      -19.870075       -2.663243
 C          -7.718154      -20.933813       -3.673911
 H          -5.483824      -22.225967       -1.299032
 H          -5.121539      -20.992739       -2.683897
 H          -7.644062      -18.573977       -1.031320
 H          -6.350864      -18.662628       -2.210365
 H          -7.774326      -22.758656       -2.348441
 H          -6.559257      -22.802908       -3.587886
 H          -8.763132      -19.070183       -3.250918
 H          -9.091027      -20.169798       -2.024593
 H          -8.532653      -21.405237       -4.213593
 H          -7.002522      -20.479954       -4.385886
