20
 generated by VMD
 C         -23.220636      -53.439014      -13.477550
 N         -23.400770      -52.693863      -14.291372
 H         -20.719395      -55.099396      -13.897759
 H         -22.896217      -53.915451      -12.417733
 C         -19.517473      -54.913445      -14.002176
 C         -19.071259      -53.521854      -13.721782
 C         -18.574587      -55.988602      -14.365170
 C         -17.733223      -53.294357      -13.041106
 C         -17.501419      -55.895687      -13.287785
 C         -16.839762      -54.475220      -13.388855
 H         -19.945368      -53.029652      -13.210478
 H         -19.029253      -52.981422      -14.681801
 H         -19.081100      -56.983303      -14.320267
 H         -18.069654      -55.941044      -15.347729
 H         -17.910118      -53.164429      -11.969142
 H         -17.246218      -52.369190      -13.415121
 H         -16.800478      -56.754494      -13.382517
 H         -17.941872      -55.954044      -12.298496
 H         -16.027748      -54.448925      -12.686872
 H         -16.517406      -54.318527      -14.452359
