20
 generated by VMD
 C         -27.619980      -84.584900      -26.182993
 N         -28.207645      -85.069466      -27.035612
 H         -31.237419      -84.572723      -26.090414
 H         -27.178015      -83.976631      -25.314463
 C         -31.892168      -85.460548      -25.778563
 C         -31.923212      -85.946609      -24.299131
 C         -32.113491      -86.607864      -26.842714
 C         -33.327766      -86.585770      -24.173567
 C         -33.365482      -87.374153      -26.543453
 C         -33.436222      -87.708298      -25.127947
 H         -31.837099      -85.128288      -23.681171
 H         -31.073824      -86.618111      -24.257339
 H         -32.220104      -86.346497      -27.907864
 H         -31.355097      -87.325783      -26.797506
 H         -34.085228      -85.779816      -24.452604
 H         -33.367966      -87.008156      -23.083813
 H         -33.337376      -88.360535      -27.191528
 H         -34.263813      -86.814407      -26.833075
 H         -34.357655      -88.233551      -24.855633
 H         -32.582851      -88.531738      -24.879663
