20
 generated by VMD
 C         -60.085331     -157.388702      -56.305241
 N         -59.500572     -158.321716      -56.536789
 H         -59.941170     -157.403564      -53.306316
 H         -60.637035     -156.485031      -56.190243
 C         -59.493237     -158.285141      -52.856621
 C         -58.117462     -158.031769      -52.340649
 C         -59.822475     -159.587738      -53.180775
 C         -57.801762     -158.885147      -51.125980
 C         -59.382473     -160.542267      -52.047092
 C         -57.952644     -160.325974      -51.528191
 H         -58.073505     -157.031143      -52.002876
 H         -57.349243     -158.185181      -53.214699
 H         -60.876293     -159.723389      -53.117737
 H         -59.325642     -159.932938      -54.113361
 H         -58.555687     -158.895615      -50.245358
 H         -56.854980     -158.545929      -50.730755
 H         -59.576927     -161.522888      -52.506233
 H         -60.047985     -160.514648      -51.114246
 H         -57.664783     -161.070358      -50.612518
 H         -57.305935     -160.686569      -52.310085
