20
 generated by VMD
 C         -22.789865      -52.373375      -11.984487
 N         -22.990028      -52.538250      -10.888332
 H         -19.969059      -52.661949      -14.192864
 H         -22.791607      -52.311207      -12.970555
 C         -18.870100      -52.724236      -13.881189
 C         -18.014235      -51.876118      -14.737147
 C         -18.281391      -53.714672      -12.896220
 C         -16.552279      -52.315605      -14.642003
 C         -17.032646      -53.124790      -12.178617
 C         -16.255032      -52.191383      -13.134195
 H         -18.232319      -50.826656      -14.389951
 H         -18.295631      -51.894886      -15.832016
 H         -19.032036      -53.873104      -12.097953
 H         -18.102850      -54.685566      -13.395984
 H         -15.979802      -51.720543      -15.335049
 H         -16.450180      -53.336792      -14.990875
 H         -16.347078      -53.981903      -11.764222
 H         -17.300932      -52.603481      -11.257978
 H         -16.521259      -51.151241      -12.835796
 H         -15.192498      -52.302071      -12.941795
