20
 generated by VMD
 C          -2.376642       -9.786633       -0.023592
 N          -2.166115       -8.782196        0.368018
 H          -2.156294      -11.135283        2.640877
 H          -2.500276      -11.865151        4.061330
 C          -2.752683      -11.929241        3.020647
 C          -2.531052      -13.313127        2.383929
 C          -4.232353      -11.568043        2.993517
 C          -3.535191      -14.392208        2.830447
 C          -5.204195      -12.594425        3.546027
 C          -4.952537      -13.854904        2.619419
 H          -1.467655      -13.648232        2.605620
 H          -2.565122      -13.199968        1.294727
 H          -4.446180      -10.527086        3.458985
 H          -4.497476      -11.409565        1.904619
 H          -3.327317      -14.706289        3.873872
 H          -3.362960      -15.285801        2.180917
 H          -6.248472      -12.243889        3.469187
 H          -5.081365      -12.889108        4.579215
 H          -5.629377      -14.661147        2.902186
 H          -5.183710      -13.740001        1.579889
