20
 generated by VMD
 C         -12.623841      -31.149027       -8.336901
 N         -12.157031      -30.343527       -7.748806
 H         -11.660892      -33.952019       -7.678321
 H         -12.630911      -33.312878       -6.343524
 C         -11.804028      -34.003670       -6.537014
 C         -10.570547      -33.494080       -5.818964
 C         -12.245274      -35.363956       -6.064893
 C         -10.595933      -33.594585       -4.296518
 C         -12.232611      -35.424862       -4.582722
 C         -10.910723      -35.037312       -3.938404
 H         -10.244188      -32.468475       -6.196837
 H          -9.699801      -34.089550       -6.070159
 H         -13.220802      -35.607979       -6.532901
 H         -11.558531      -36.130394       -6.443152
 H         -11.362166      -32.881332       -3.951528
 H          -9.701838      -33.065807       -3.895076
 H         -12.686541      -36.399426       -4.218004
 H         -12.937346      -34.701900       -4.203405
 H         -11.085859      -35.152679       -2.880711
 H         -10.086380      -35.693356       -4.246214
