20
 generated by VMD
 C         -51.191658     -145.420807      -44.163799
 N         -51.223972     -146.405914      -44.755013
 H         -53.881943     -145.165421      -47.002937
 H         -51.372002     -144.481293      -43.612778
 C         -53.698353     -144.158340      -47.361187
 C         -52.680576     -144.020203      -48.604084
 C         -54.736641     -143.094742      -47.246838
 C         -53.393490     -143.817429      -49.893417
 C         -55.494038     -142.892395      -48.624599
 C         -54.443722     -142.645676      -49.767910
 H         -52.137665     -145.064545      -48.701786
 H         -51.938465     -143.234482      -48.343460
 H         -55.236248     -143.242554      -46.292484
 H         -54.302597     -142.088303      -47.013847
 H         -53.850574     -144.657593      -50.348942
 H         -52.666737     -143.523163      -50.602432
 H         -56.328072     -142.154999      -48.628735
 H         -56.035980     -143.790054      -48.891182
 H         -55.012955     -142.593811      -50.719273
 H         -53.774830     -141.643433      -49.644077
