20
 generated by VMD
 C         -78.034996     -204.117783      -69.959709
 N         -79.149338     -203.725235      -69.981621
 H         -75.835655     -202.522995      -67.532913
 H         -77.013901     -204.496399      -69.705414
 C         -75.447014     -202.521194      -68.539352
 C         -75.885994     -201.494186      -69.567947
 C         -74.342690     -203.479141      -69.050758
 C         -74.906860     -201.392029      -70.697205
 C         -73.151062     -202.578079      -69.431503
 C         -73.401497     -201.347687      -70.272354
 H         -76.092369     -200.491470      -69.104469
 H         -76.777664     -201.933121      -69.862068
 H         -74.079704     -204.180664      -68.248657
 H         -74.584114     -204.032944      -69.904816
 H         -75.098061     -200.523865      -71.352982
 H         -75.079842     -202.228943      -71.389114
 H         -72.389725     -203.300888      -69.758224
 H         -72.709282     -202.203186      -68.502708
 H         -73.088730     -200.322357      -69.797401
 H         -72.746330     -201.383011      -71.217209
