20
 generated by VMD
 C         -49.545170     -133.116516      -46.827232
 N         -48.518967     -132.828995      -47.396618
 H         -48.102676     -134.787216      -43.646626
 H         -50.506874     -132.969376      -46.283768
 C         -49.178158     -134.850479      -43.883610
 C         -49.568783     -136.203812      -44.310524
 C         -50.250694     -134.004654      -43.273262
 C         -50.097340     -136.958328      -43.095684
 C         -50.798389     -134.809280      -42.015675
 C         -51.250359     -136.187637      -42.511093
 H         -48.648712     -136.764893      -44.587212
 H         -50.233433     -136.234589      -45.128540
 H         -49.780006     -133.031036      -42.958195
 H         -51.113029     -133.777039      -43.948219
 H         -49.307922     -137.271851      -42.362968
 H         -50.578053     -137.864441      -43.313381
 H         -51.554214     -134.127426      -41.543587
 H         -49.994843     -134.919739      -41.238388
 H         -51.524353     -136.594772      -41.567341
 H         -52.065266     -135.985336      -43.277496
