20
 generated by VMD
 C         -30.961351      -77.807098      -25.460077
 N         -31.636728      -77.830429      -26.357309
 H         -29.246115      -78.243965      -23.091515
 H         -30.033504      -77.848267      -24.924246
 C         -28.938683      -79.293884      -23.317686
 C         -27.490454      -79.472252      -23.397779
 C         -29.689447      -80.437981      -22.731855
 C         -26.927050      -79.874809      -22.039631
 C         -29.087580      -80.861832      -21.372154
 C         -27.656403      -81.203934      -21.603598
 H         -27.198376      -78.481880      -23.625898
 H         -27.231697      -80.284981      -24.067205
 H         -30.732582      -80.180351      -22.643587
 H         -29.651033      -81.322540      -23.454973
 H         -27.118567      -78.976730      -21.424099
 H         -25.874708      -79.958984      -21.972961
 H         -29.712278      -81.682434      -21.103735
 H         -29.169914      -79.979065      -20.777479
 H         -27.270210      -81.579849      -20.577288
 H         -27.516050      -82.029106      -22.368074
