20
 generated by VMD
 C         -49.558956     -131.852859      -46.460651
 N         -50.243858     -132.374512      -47.240791
 H         -47.823074     -133.632584      -44.546490
 H         -49.103989     -131.245422      -45.697487
 C         -48.345963     -134.016617      -43.678005
 C         -49.220879     -135.287033      -43.980343
 C         -49.121838     -133.081619      -42.854176
 C         -49.675598     -135.925430      -42.673264
 C         -49.598076     -133.628891      -41.543716
 C         -50.465626     -134.909134      -41.848667
 H         -48.598915     -136.008240      -44.451225
 H         -49.986115     -134.996078      -44.665096
 H         -48.643871     -132.089050      -42.580227
 H         -50.017227     -132.870926      -43.480984
 H         -48.796154     -136.359741      -42.102367
 H         -50.419140     -136.751236      -42.740967
 H         -50.125916     -132.791885      -41.037518
 H         -48.873302     -133.959595      -40.773705
 H         -50.778202     -135.357224      -40.812737
 H         -51.309952     -134.667603      -42.473614
