20
 generated by VMD
 C         -11.162675      -32.695858       -8.776714
 N         -11.948193      -32.989563       -9.550160
 H         -11.963539      -33.724342       -6.462026
 H         -12.677664      -34.211288       -4.886442
 C         -12.319648      -34.561745       -5.844815
 C         -11.147375      -35.537960       -5.629066
 C         -13.552173      -35.326782       -6.450406
 C         -11.420855      -36.897690       -4.953180
 C         -13.875809      -36.576580       -5.621662
 C         -12.630687      -37.506561       -5.673794
 H         -10.448980      -34.999733       -4.992475
 H         -10.666895      -35.811867       -6.547911
 H         -14.386551      -34.622181       -6.439293
 H         -13.350752      -35.684387       -7.515194
 H         -11.561110      -36.827194       -3.872558
 H         -10.553221      -37.570114       -5.163670
 H         -14.700540      -37.110218       -6.175443
 H         -14.198304      -36.402847       -4.596638
 H         -12.852558      -38.413242       -5.117972
 H         -12.413292      -37.837784       -6.667964
