20
 generated by VMD
 C         -12.511116      -30.246916       -8.003100
 N         -13.419902      -30.155033       -7.367369
 H         -11.448699      -30.420166       -5.084360
 H         -10.532543      -30.652319       -3.635901
 C         -10.856461      -31.180254       -4.593776
 C          -9.639683      -31.640253       -5.401098
 C         -11.863064      -32.235130       -4.317158
 C          -8.954564      -32.836079       -4.714614
 C         -11.199112      -33.411373       -3.676687
 C          -9.928335      -33.952057       -4.453753
 H          -8.922593      -30.766365       -5.545053
 H          -9.888887      -31.948872       -6.380356
 H         -12.611593      -31.822006       -3.608752
 H         -12.454538      -32.484123       -5.224668
 H          -8.369261      -32.520130       -3.818692
 H          -8.174320      -33.213882       -5.427381
 H         -11.963268      -34.127453       -3.592332
 H         -10.878274      -33.244030       -2.608667
 H          -9.405782      -34.786266       -3.943211
 H         -10.235785      -34.430737       -5.460704
