20
 generated by VMD
 C         -55.685986     -149.003754      -45.597775
 N         -55.156555     -149.599121      -44.727036
 H         -54.525349     -148.186813      -48.312069
 H         -56.344841     -148.481445      -46.285309
 C         -54.226116     -147.275314      -48.879467
 C         -53.146969     -147.229416      -49.954651
 C         -54.965427     -145.996078      -48.543182
 C         -53.434402     -146.330505      -51.092453
 C         -55.159668     -145.146362      -49.763161
 C         -53.973175     -145.028091      -50.595592
 H         -53.047710     -148.225876      -50.325268
 H         -52.188969     -147.054626      -49.414089
 H         -55.998882     -146.243759      -48.159611
 H         -54.434826     -145.341873      -47.709034
 H         -54.323494     -146.882645      -51.563000
 H         -52.644024     -146.310471      -51.835464
 H         -55.358604     -144.059311      -49.385784
 H         -55.990669     -145.494873      -50.379784
 H         -54.340466     -144.541946      -51.570312
 H         -53.104160     -144.541153      -50.140629
