20
 generated by VMD
 C         -78.658821     -210.260895      -76.381470
 N         -77.574028     -210.467331      -76.759407
 H         -79.584969     -212.066483      -74.767387
 H         -79.699112     -210.073761      -76.009842
 C         -79.620934     -212.346542      -73.698372
 C         -78.363831     -212.550400      -72.950081
 C         -80.848373     -213.070480      -73.214630
 C         -78.470734     -212.731308      -71.517204
 C         -80.685204     -213.535019      -71.785431
 C         -79.380798     -213.925400      -71.155197
 H         -77.798981     -211.621155      -73.031082
 H         -77.866043     -213.358856      -73.418526
 H         -81.760338     -212.427689      -73.257423
 H         -81.120911     -213.794632      -73.948875
 H         -78.894363     -211.774765      -71.134666
 H         -77.435425     -212.950729      -71.112968
 H         -81.364822     -214.374741      -71.545067
 H         -80.979126     -212.736099      -71.003571
 H         -79.469940     -213.988846      -70.065765
 H         -78.955963     -214.913239      -71.531090
