20
 generated by VMD
 C         -49.040348     -126.953606      -38.890720
 N         -50.046638     -127.231842      -38.369503
 H         -46.905857     -124.951820      -39.756741
 H         -48.177197     -126.835106      -39.513412
 C         -46.040489     -124.551842      -40.117413
 C         -44.692036     -125.104324      -40.009132
 C         -46.176498     -123.073372      -40.474155
 C         -43.671196     -124.681808      -41.055187
 C         -45.232498     -122.639122      -41.570396
 C         -43.780167     -123.181839      -41.477982
 H         -44.750511     -126.238380      -40.033669
 H         -44.310902     -124.816528      -39.052883
 H         -47.187843     -122.864243      -40.711655
 H         -46.045864     -122.317497      -39.624821
 H         -43.637184     -125.382156      -41.840916
 H         -42.681641     -124.762535      -40.638153
 H         -45.143326     -121.487579      -41.487457
 H         -45.701931     -122.644981      -42.560429
 H         -43.341976     -122.919983      -42.500179
 H         -43.148445     -122.552101      -40.824081
