20
 generated by VMD
 C         -16.348475      -47.650707       -7.203038
 N         -16.099792      -46.571247       -7.128520
 H         -16.753418      -48.358562      -10.179980
 H         -15.504473      -48.111431      -11.357606
 C         -16.473219      -47.697006      -10.997516
 C         -16.336203      -46.219036      -10.526044
 C         -17.419683      -47.728302      -12.208267
 C         -15.969460      -45.232208      -11.608574
 C         -16.965988      -46.797340      -13.309786
 C         -16.848804      -45.292820      -12.877990
 H         -15.531046      -46.149151       -9.774929
 H         -17.283901      -45.962273      -10.050737
 H         -17.319590      -48.749615      -12.598475
 H         -18.504862      -47.548740      -11.919877
 H         -14.926853      -45.509895      -11.906153
 H         -15.991572      -44.189381      -11.257883
 H         -17.486134      -46.929024      -14.204229
 H         -15.920657      -47.032135      -13.499248
 H         -16.312014      -44.784973      -13.657572
 H         -17.856554      -44.969742      -12.686787
