20
 generated by VMD
 C         -10.971406      -34.149555       -9.180231
 N         -11.340600      -33.307526       -8.496922
 H         -11.504144      -37.756332       -8.090451
 H         -12.222147      -37.048820       -6.578529
 C         -12.339332      -37.869022       -7.336858
 C         -12.374991      -39.144745       -6.524232
 C         -13.665341      -37.611008       -8.003033
 C         -13.533825      -39.244984       -5.561193
 C         -14.778835      -37.532703       -7.021671
 C         -14.826613      -38.897099       -6.271481
 H         -11.425942      -39.102280       -5.987119
 H         -12.383071      -40.010403       -7.162132
 H         -13.644300      -36.580711       -8.542682
 H         -13.833858      -38.414265       -8.717986
 H         -13.350751      -38.575985       -4.677723
 H         -13.665451      -40.264687       -5.235322
 H         -15.802464      -37.441895       -7.555491
 H         -14.718327      -36.736370       -6.321458
 H         -15.647690      -38.854149       -5.520617
 H         -15.100553      -39.734875       -6.925481
