20
 generated by VMD
 C         -66.714211     -190.175690      -66.741577
 N         -67.669662     -190.151306      -66.080460
 H         -70.498817     -190.961670      -66.308846
 H         -65.901909     -189.969849      -67.380104
 C         -71.161797     -190.428131      -65.615311
 C         -72.444969     -191.114014      -65.141716
 C         -70.460281     -189.456482      -64.733215
 C         -73.270782     -190.323776      -64.116417
 C         -71.447006     -188.646927      -63.929718
 C         -72.513222     -189.455292      -63.240425
 H         -72.183609     -192.188705      -64.964905
 H         -73.126900     -191.266510      -66.012810
 H         -69.682243     -189.844894      -64.043350
 H         -69.853493     -188.656662      -65.303581
 H         -73.877464     -190.950531      -63.509106
 H         -74.132332     -189.821121      -64.604851
 H         -71.962524     -187.958282      -64.679085
 H         -70.972023     -188.032135      -63.179588
 H         -72.030762     -190.058319      -62.395931
 H         -73.351341     -188.801331      -62.765888
