20
 generated by VMD
 C         -59.846741     -157.504303      -56.689121
 N         -59.252781     -158.539215      -56.592205
 H         -60.269379     -157.623688      -53.279057
 H         -60.353264     -156.519958      -56.719601
 C         -59.744598     -158.345581      -52.661751
 C         -58.326374     -158.175720      -52.236504
 C         -60.046970     -159.785172      -53.082653
 C         -57.826431     -159.211380      -51.330124
 C         -59.619141     -160.796997      -52.024147
 C         -58.120491     -160.572739      -51.809204
 H         -58.218521     -157.095566      -51.805119
 H         -57.695061     -158.096954      -53.130325
 H         -61.087296     -159.866714      -53.283157
 H         -59.429207     -160.009293      -53.959995
 H         -58.214947     -158.794418      -50.388966
 H         -56.744072     -159.222778      -51.290890
 H         -59.561253     -161.847168      -52.361088
 H         -60.202343     -160.681961      -51.139881
 H         -57.827198     -161.403091      -51.133614
 H         -57.569954     -160.817062      -52.796650
