20
 generated by VMD
 C         -26.843065      -71.722282      -17.604404
 N         -26.891695      -72.817543      -17.169697
 H         -24.240719      -69.929802      -18.692844
 H         -26.813776      -70.756416      -17.875834
 C         -24.891626      -70.220505      -19.525229
 C         -24.148981      -71.301956      -20.348307
 C         -25.810036      -69.303627      -20.264252
 C         -25.121000      -72.099091      -21.420874
 C         -26.706022      -70.002441      -21.310614
 C         -25.912642      -71.035347      -22.258579
 H         -23.604918      -71.963074      -19.689341
 H         -23.448174      -70.863976      -20.991392
 H         -26.470184      -68.767960      -19.560709
 H         -25.263300      -68.441414      -20.646582
 H         -25.859289      -72.749054      -20.945007
 H         -24.432257      -72.740570      -22.002554
 H         -27.212746      -69.172195      -21.875116
 H         -27.578102      -70.555893      -20.780334
 H         -26.713671      -71.385925      -22.907272
 H         -25.166533      -70.586990      -22.987255
