20
 generated by VMD
 C         -25.614965      -71.238892      -17.111015
 N         -25.400488      -71.216263      -15.972663
 H         -24.241478      -69.027138      -18.554668
 H         -25.558502      -71.251572      -18.112513
 C         -24.628040      -69.025620      -19.544064
 C         -23.833780      -69.925232      -20.613647
 C         -25.854696      -68.291626      -19.873678
 C         -24.854053      -70.891510      -21.253969
 C         -26.752253      -69.265060      -20.559671
 C         -26.040598      -70.052200      -21.776072
 H         -23.039040      -70.378891      -20.037487
 H         -23.547209      -69.319794      -21.453161
 H         -26.263546      -67.816284      -19.007555
 H         -25.610718      -67.325638      -20.369011
 H         -25.261702      -71.458046      -20.382273
 H         -24.474525      -71.522507      -22.046135
 H         -27.730446      -68.858429      -20.836985
 H         -27.000782      -69.964478      -19.744850
 H         -26.845840      -70.651077      -22.301601
 H         -25.924414      -69.203407      -22.483988
