20
 generated by VMD
 C         -58.323631     -168.446884      -54.996681
 N         -57.141281     -168.598618      -54.916817
 H         -61.674744     -167.874130      -55.585297
 H         -59.391674     -168.227631      -54.905476
 C         -62.393490     -167.304474      -56.105431
 C         -62.630051     -167.677078      -57.568405
 C         -62.913414     -166.040787      -55.597195
 C         -64.099075     -167.543472      -57.902565
 C         -64.463524     -165.844635      -55.985725
 C         -64.720299     -166.187286      -57.478111
 H         -62.443066     -168.837982      -57.800392
 H         -62.139179     -167.110718      -58.233971
 H         -62.832218     -165.970795      -54.458416
 H         -62.400715     -165.110214      -55.914791
 H         -64.684357     -168.217728      -57.251114
 H         -64.440102     -167.725052      -58.960194
 H         -64.648590     -164.844101      -55.619308
 H         -64.869820     -166.672577      -55.470722
 H         -65.762917     -166.270950      -57.608788
 H         -64.437141     -165.447464      -58.199562
