20
 generated by VMD
 C         -59.708115     -157.462036      -56.613045
 N         -60.759789     -157.150848      -57.124481
 H         -59.781494     -157.207520      -53.118355
 H         -58.734772     -157.615479      -56.103455
 C         -59.116333     -157.886810      -52.588402
 C         -57.929741     -157.311203      -51.891430
 C         -59.436028     -159.392456      -52.643837
 C         -57.419964     -158.231674      -50.885529
 C         -58.835117     -160.155487      -51.490734
 C         -57.435814     -159.662766      -51.217361
 H         -58.257019     -156.370407      -51.445702
 H         -57.211121     -157.039673      -52.650848
 H         -60.557377     -159.580597      -52.620789
 H         -59.033989     -159.713120      -53.556419
 H         -58.035591     -158.068771      -50.021927
 H         -56.467232     -157.974884      -50.388062
 H         -58.827629     -161.243378      -51.571045
 H         -59.544178     -159.965729      -50.692268
 H         -57.189064     -160.198471      -50.274956
 H         -56.788078     -159.918335      -52.009468
