20
 generated by VMD
 C         -30.103447      -89.578545      -25.786360
 N         -29.240746      -90.290955      -25.946243
 H         -32.269802      -91.030930      -26.422762
 H         -30.997665      -88.948479      -25.798960
 C         -32.960938      -90.731216      -27.213905
 C         -34.293121      -91.332222      -27.292053
 C         -32.561481      -89.579155      -28.052530
 C         -35.251770      -90.120934      -26.955709
 C         -33.519028      -88.418053      -27.792145
 C         -34.987202      -88.867920      -27.854305
 H         -34.315613      -92.170761      -26.555700
 H         -34.302662      -91.847275      -28.217892
 H         -31.557703      -89.274681      -27.888561
 H         -32.592693      -89.605576      -29.121590
 H         -34.898411      -89.929184      -25.982336
 H         -36.285950      -90.526001      -27.034346
 H         -33.309002      -87.566605      -28.470213
 H         -33.340763      -88.086433      -26.780865
 H         -35.798820      -88.164337      -27.729416
 H         -35.136620      -89.239296      -28.777645
