20
 generated by VMD
 C         -27.656477      -81.146774      -27.434902
 N         -28.751562      -81.479134      -27.589493
 H         -30.385756      -83.024048      -25.313200
 H         -26.705343      -80.844292      -27.536058
 C         -30.574339      -83.986450      -24.819967
 C         -30.441887      -84.097908      -23.378057
 C         -31.260948      -85.140335      -25.462084
 C         -31.639755      -84.519852      -22.528297
 C         -32.560810      -85.569710      -24.904652
 C         -32.392418      -85.794159      -23.325941
 H         -30.093393      -83.057327      -23.043043
 H         -29.567822      -84.649620      -23.098791
 H         -31.447586      -85.058197      -26.512873
 H         -30.535313      -85.971420      -25.474722
 H         -32.351334      -83.669579      -22.528517
 H         -31.253757      -84.736061      -21.552536
 H         -32.944183      -86.469963      -25.302134
 H         -33.297523      -84.777893      -25.034765
 H         -33.300285      -85.999382      -22.780266
 H         -31.696770      -86.641655      -23.112314
