20
 generated by VMD
 C         -49.559029     -131.804214      -46.536194
 N         -50.165234     -132.493607      -47.201492
 H         -48.232937     -133.168732      -44.684151
 H         -49.065552     -131.341934      -45.732712
 C         -48.661335     -133.665375      -43.810040
 C         -49.256073     -135.028061      -44.013275
 C         -49.066128     -132.821869      -42.632359
 C         -49.541122     -135.778366      -42.685013
 C         -49.384132     -133.651367      -41.315033
 C         -50.259575     -134.841644      -41.718140
 H         -48.724350     -135.651566      -44.666817
 H         -50.278805     -134.906677      -44.512817
 H         -48.261597     -132.152786      -42.423370
 H         -49.914024     -132.150833      -42.961143
 H         -48.529594     -136.151413      -42.408970
 H         -50.232578     -136.588837      -43.009232
 H         -49.978729     -132.890884      -40.632782
 H         -48.456230     -133.971069      -40.809597
 H         -50.637821     -135.500473      -40.873619
 H         -51.327316     -134.550995      -42.093826
