20
 generated by VMD
 C         -21.180405      -52.446308      -11.467428
 N         -21.443197      -52.889442      -10.362656
 H         -19.656881      -50.175831      -13.698495
 H         -21.027678      -52.135647      -12.344322
 C         -18.879925      -50.816376      -13.270202
 C         -18.416889      -51.936726      -14.208149
 C         -18.066813      -50.389530      -12.107422
 C         -16.918163      -52.006073      -14.315386
 C         -16.564520      -50.311668      -12.357438
 C         -16.118145      -51.657684      -13.040368
 H         -18.884548      -51.909172      -15.169589
 H         -18.734398      -52.927498      -13.794339
 H         -18.338140      -49.392296      -11.642601
 H         -18.296577      -51.220390      -11.401841
 H         -16.689606      -51.293404      -15.133714
 H         -16.550280      -53.027504      -14.511890
 H         -16.076862      -50.126785      -11.458470
 H         -16.323990      -49.493279      -13.098025
 H         -15.102045      -51.618530      -13.335896
 H         -16.194975      -52.402546      -12.279949
