20
 generated by VMD
 C         -53.053165     -146.817184      -44.846310
 N         -51.986992     -147.045959      -44.580540
 H         -54.678627     -146.671051      -47.884731
 H         -54.063900     -146.714142      -45.203671
 C         -54.208824     -145.667053      -48.102718
 C         -53.035427     -145.572510      -49.027283
 C         -54.979103     -144.437637      -47.827305
 C         -53.433098     -144.702484      -50.325760
 C         -55.321529     -143.509628      -49.031643
 C         -54.106659     -143.221954      -49.897594
 H         -52.697220     -146.581116      -49.497555
 H         -52.135132     -145.182312      -48.595692
 H         -55.936390     -144.684555      -47.244545
 H         -54.461327     -143.679672      -47.036411
 H         -54.117657     -145.118729      -51.071346
 H         -52.466122     -144.500076      -50.896267
 H         -55.866768     -142.542908      -48.656410
 H         -56.067646     -144.071182      -49.617077
 H         -54.311165     -142.476868      -50.745995
 H         -53.281658     -142.848190      -49.191601
