20
 generated by VMD
 C         -40.134773     -100.682297      -31.820919
 N         -40.876842     -100.300339      -31.030800
 H         -37.692902     -103.542145      -31.690958
 H         -39.328617     -101.175697      -32.400841
 C         -36.993149     -102.728676      -31.757553
 C         -35.837879     -102.303627      -32.651028
 C         -36.764950     -102.414520      -30.325741
 C         -35.576359     -100.741959      -32.565434
 C         -36.544540     -100.894127      -30.273880
 C         -35.301865     -100.285149      -31.165657
 H         -36.041348     -102.535370      -33.723804
 H         -34.907936     -102.752373      -32.326912
 H         -37.598854     -102.701569      -29.724003
 H         -35.882057     -102.967896      -29.843494
 H         -36.392143     -100.307373      -33.025963
 H         -34.682880     -100.511726      -33.166580
 H         -36.345341     -100.644302      -29.123215
 H         -37.425068     -100.392448      -30.602859
 H         -35.343742      -99.212822      -31.145592
 H         -34.405014     -100.716476      -30.736790
