20
 generated by VMD
 C          -1.695738      -17.430927        2.039304
 N          -1.601381      -17.202274        3.124248
 H          -5.379585      -17.329304        0.994958
 H          -5.012194      -18.383919       -0.291569
 C          -5.824139      -17.818336        0.125383
 C          -6.173323      -16.835819       -1.040278
 C          -7.024593      -18.653164        0.642133
 C          -7.014860      -17.566004       -2.108316
 C          -7.631531      -19.450420       -0.583000
 C          -8.139910      -18.507196       -1.594444
 H          -5.207368      -16.499847       -1.518165
 H          -6.579631      -15.979625       -0.527442
 H          -6.714342      -19.506390        1.315108
 H          -7.824391      -18.083151        1.163135
 H          -6.378736      -18.177715       -2.801741
 H          -7.462241      -16.853756       -2.823263
 H          -8.475760      -20.061895       -0.248919
 H          -6.976761      -20.140730       -1.034871
 H          -8.617542      -19.064175       -2.386076
 H          -8.963641      -17.904461       -1.173857
