20
 generated by VMD
 C         -15.448432      -47.627659       -6.232911
 N         -15.613780      -46.618641       -5.762658
 H         -16.518826      -47.198799       -9.930079
 H         -15.171596      -47.080463      -10.933509
 C         -16.257177      -46.759861      -10.912786
 C         -16.450628      -45.301388      -10.845550
 C         -17.121817      -47.414856      -11.984770
 C         -16.180067      -44.590786      -12.182006
 C         -16.900923      -46.568321      -13.291240
 C         -17.093605      -45.055588      -13.288154
 H         -15.854363      -44.909966      -10.038020
 H         -17.474676      -45.081554      -10.616051
 H         -16.786369      -48.405087      -12.166246
 H         -18.170193      -47.402374      -11.682388
 H         -15.169126      -44.773834      -12.549737
 H         -16.333351      -43.544979      -11.930596
 H         -17.596083      -47.000435      -14.016901
 H         -15.837635      -46.775833      -13.703723
 H         -16.742413      -44.579277      -14.199371
 H         -18.166941      -44.808434      -13.091374
