20
 generated by VMD
 C         -80.368484     -206.850739      -74.023018
 N         -80.568001     -206.749969      -75.153625
 H         -76.712227     -207.712280      -73.183296
 H         -80.029480     -206.806580      -73.030357
 C         -76.392700     -207.767288      -72.080627
 C         -75.407921     -206.831802      -71.406075
 C         -77.312706     -208.626083      -71.205551
 C         -75.420601     -206.728745      -69.809563
 C         -77.462112     -208.245667      -69.836807
 C         -76.100388     -207.935394      -69.155876
 H         -75.415817     -205.849365      -71.927505
 H         -74.357491     -207.199173      -71.407043
 H         -78.240509     -208.796249      -71.708389
 H         -76.721436     -209.565002      -71.114807
 H         -75.940369     -205.833481      -69.523849
 H         -74.451935     -206.761261      -69.332970
 H         -77.875031     -209.088440      -69.348579
 H         -78.231186     -207.425064      -69.821457
 H         -76.419624     -207.625320      -68.078728
 H         -75.394402     -208.772644      -69.130608
