20
 generated by VMD
 C         -70.831017     -198.812180      -64.370544
 N         -70.206131     -198.470993      -65.301361
 H         -72.281883     -196.429993      -66.665581
 H         -71.301170     -199.271667      -63.528034
 C         -73.132408     -195.904739      -67.068451
 C         -73.292549     -194.456467      -66.570427
 C         -73.946770     -196.434494      -68.184540
 C         -73.233635     -193.537872      -67.745346
 C         -74.761200     -195.351471      -68.793411
 C         -74.108856     -193.961807      -69.039879
 H         -72.514214     -194.259232      -65.770973
 H         -74.190887     -194.357544      -65.995605
 H         -73.341141     -196.910553      -68.987030
 H         -74.514862     -197.358749      -67.974205
 H         -72.168694     -193.372971      -67.995926
 H         -73.684654     -192.595184      -67.345879
 H         -75.629166     -195.057510      -68.095985
 H         -75.325333     -195.753799      -69.667328
 H         -73.308990     -194.027390      -69.813560
 H         -74.748009     -193.082642      -69.326019
