20
 generated by VMD
 C         -40.844070     -102.781914      -34.881798
 N         -41.487339     -102.618851      -35.837730
 H         -39.599541     -104.471161      -32.995037
 H         -40.309589     -102.929237      -33.981533
 C         -38.736198     -104.688652      -32.289543
 C         -37.547939     -104.194328      -32.962620
 C         -38.707153     -106.016983      -31.591150
 C         -36.487499     -104.041206      -31.902697
 C         -37.566616     -105.950874      -30.595360
 C         -36.263031     -105.431839      -31.246857
 H         -37.913845     -103.245087      -33.350609
 H         -37.313648     -104.808304      -33.813358
 H         -39.746540     -106.097633      -31.186687
 H         -38.559296     -106.842125      -32.339005
 H         -36.575050     -103.166168      -31.218576
 H         -35.594406     -103.786110      -32.539337
 H         -37.236973     -106.971642      -30.106464
 H         -37.818424     -105.230705      -29.764978
 H         -35.375126     -105.443726      -30.543001
 H         -36.071106     -106.128647      -32.034504
