20
 generated by VMD
 C         -59.954720     -156.754410      -55.991512
 N         -60.989414     -156.191727      -56.253242
 H         -59.700874     -157.613449      -53.210777
 H         -59.019039     -157.154358      -55.641998
 C         -58.772503     -157.972229      -52.922703
 C         -57.705914     -156.990860      -52.536854
 C         -58.642349     -159.359741      -52.427834
 C         -57.316944     -157.132324      -51.026379
 C         -58.355297     -159.429810      -50.954018
 C         -57.151928     -158.624954      -50.519508
 H         -58.264236     -156.041855      -52.717560
 H         -56.709732     -156.999054      -53.232834
 H         -59.564503     -159.953751      -52.654728
 H         -57.760159     -159.884827      -52.977489
 H         -58.062157     -156.693497      -50.262730
 H         -56.457794     -156.465866      -50.781807
 H         -58.211605     -160.498428      -50.725311
 H         -59.209232     -159.046692      -50.360508
 H         -56.784313     -158.757263      -49.436131
 H         -56.217857     -159.018677      -51.032761
