20
 generated by VMD
 C         -79.193039     -207.627243      -75.271393
 N         -78.589569     -207.141571      -76.133118
 H         -78.968002     -210.234787      -73.289932
 H         -79.685623     -208.065720      -74.405518
 C         -78.396370     -210.050003      -72.358887
 C         -77.220123     -209.206360      -72.344398
 C         -78.584503     -211.138702      -71.367455
 C         -76.950676     -208.701599      -70.837318
 C         -78.398613     -210.513443      -69.983459
 C         -77.059601     -209.746216      -69.795219
 H         -77.547569     -208.273819      -72.894371
 H         -76.353752     -209.504852      -72.962570
 H         -79.561066     -211.542938      -71.620522
 H         -77.795792     -211.917603      -71.369476
 H         -77.695892     -207.878510      -70.564911
 H         -75.971397     -208.163666      -70.714958
 H         -78.530983     -211.262314      -69.127235
 H         -79.273422     -209.934372      -69.985161
 H         -76.821655     -209.389633      -68.809807
 H         -76.295334     -210.521576      -69.929169
