20
 generated by VMD
 C          -6.865975      -23.316025        3.251699
 N          -6.527684      -22.671459        2.427755
 H          -7.451664      -22.192898       -0.367769
 H          -8.640263      -22.167715       -1.547240
 C          -7.640049      -21.908094       -1.363414
 C          -6.807331      -22.667036       -2.365691
 C          -7.443314      -20.366461       -1.514396
 C          -7.050723      -22.154472       -3.774389
 C          -7.732978      -19.895008       -2.989941
 C          -6.872105      -20.679037       -3.974533
 H          -6.900005      -23.757811       -2.389619
 H          -5.698402      -22.593565       -2.065238
 H          -8.258567      -19.887781       -0.847335
 H          -6.410356      -20.012901       -1.301147
 H          -8.076664      -22.432034       -3.946466
 H          -6.350002      -22.646051       -4.460445
 H          -7.473102      -18.817106       -3.036692
 H          -8.771252      -20.136587       -3.289484
 H          -7.208086      -20.362387       -4.938788
 H          -5.840553      -20.437267       -3.908914
