20
 generated by VMD
 C         -66.997658     -189.842041      -67.033531
 N         -67.269653     -190.139420      -65.915344
 H         -70.667549     -190.734894      -66.381577
 H         -66.568169     -189.714478      -67.993362
 C         -71.108147     -190.377319      -65.439919
 C         -72.274506     -191.057068      -64.940697
 C         -70.418518     -189.339050      -64.622803
 C         -73.333183     -190.249878      -64.127670
 C         -71.407684     -188.452072      -63.945652
 C         -72.535240     -189.292633      -63.186306
 H         -71.870117     -191.741562      -64.222816
 H         -72.802925     -191.546524      -65.844124
 H         -69.885643     -189.959808      -63.926353
 H         -69.713715     -188.784698      -65.404976
 H         -73.861946     -191.004990      -63.580669
 H         -73.930016     -189.620285      -64.786064
 H         -71.909454     -187.804123      -64.719986
 H         -70.771217     -187.879776      -63.255760
 H         -71.992683     -189.737549      -62.370232
 H         -73.398590     -188.684982      -62.590580
