20
 generated by VMD
 C         -29.598196      -89.768196      -25.359238
 N         -29.153387      -90.797401      -25.630070
 H         -32.207413      -91.559837      -27.480314
 H         -29.876606      -88.798912      -25.212175
 C         -33.064987      -90.960884      -27.708120
 C         -34.493443      -91.405823      -27.298664
 C         -32.718643      -89.595306      -28.203608
 C         -35.442169      -90.242577      -27.133533
 C         -33.782501      -88.557915      -27.997353
 C         -35.215797      -89.156845      -28.139730
 H         -34.417877      -92.131653      -26.485371
 H         -34.922237      -92.094101      -28.105709
 H         -31.764866      -89.053177      -27.993736
 H         -32.663029      -89.768822      -29.283459
 H         -35.185329      -89.858345      -26.202684
 H         -36.355293      -90.703415      -27.165703
 H         -33.719357      -87.605202      -28.486622
 H         -33.757954      -88.299065      -26.955147
 H         -35.941540      -88.355392      -27.945511
 H         -35.543472      -89.520454      -29.153070
