20
 generated by VMD
 C         -30.702971      -78.361481      -25.263580
 N         -31.300976      -77.377762      -24.988083
 H         -29.064505      -76.917656      -22.368132
 H         -30.214987      -79.419647      -25.064318
 C         -28.696438      -77.951050      -22.503668
 C         -27.491112      -78.274284      -23.336851
 C         -29.471251      -79.140091      -22.067316
 C         -26.542990      -79.050224      -22.483189
 C         -28.634611      -80.227356      -21.316568
 C         -27.253454      -80.293274      -21.940228
 H         -26.983704      -77.330925      -23.816833
 H         -27.813150      -78.828918      -24.309275
 H         -30.209867      -78.892563      -21.348946
 H         -30.072063      -79.702629      -22.821184
 H         -26.319023      -78.343910      -21.655823
 H         -25.586464      -79.379494      -23.028057
 H         -29.012869      -81.274834      -21.428366
 H         -28.436586      -80.001396      -20.178877
 H         -26.606661      -80.678749      -21.159822
 H         -27.270849      -81.025078      -22.794798
