20
 generated by VMD
 C         -67.286522     -177.784500      -57.400383
 N         -67.609001     -178.734909      -56.830566
 H         -64.274452     -176.086441      -59.001251
 H         -66.931602     -176.826492      -57.823120
 C         -64.393776     -175.251221      -59.632721
 C         -65.623047     -174.464188      -59.497372
 C         -63.153713     -174.769226      -60.470306
 C         -65.351181     -173.004868      -59.450871
 C         -62.931763     -173.246826      -60.232559
 C         -64.222710     -172.524902      -60.387218
 H         -66.127029     -174.726334      -58.564545
 H         -66.268631     -174.716049      -60.393581
 H         -62.328297     -175.410385      -60.087040
 H         -63.381138     -175.018585      -61.605534
 H         -65.106514     -172.730835      -58.423191
 H         -66.287216     -172.600540      -59.848782
 H         -62.211395     -172.809631      -60.985142
 H         -62.538830     -173.082047      -59.213238
 H         -64.356583     -171.426300      -60.290539
 H         -64.525063     -172.810089      -61.419201
