20
 generated by VMD
 C         -78.138313     -204.160675      -70.132980
 N         -79.277122     -203.817719      -70.019318
 H         -76.183105     -203.061035      -67.981483
 H         -77.144386     -204.463257      -69.956032
 C         -75.639099     -202.853088      -68.899277
 C         -75.877571     -201.494873      -69.549194
 C         -74.277618     -203.492126      -68.791954
 C         -74.881149     -201.353928      -70.757256
 C         -73.131729     -202.664795      -69.367378
 C         -73.417122     -201.583771      -70.343498
 H         -75.677826     -200.797470      -68.678505
 H         -76.867508     -201.438370      -69.941772
 H         -73.992966     -203.708893      -67.759071
 H         -74.320190     -204.401566      -69.248810
 H         -75.030533     -200.438477      -71.353683
 H         -75.051018     -202.174469      -71.419250
 H         -72.466087     -203.451416      -69.893120
 H         -72.515640     -202.330826      -68.475464
 H         -73.163948     -200.545883      -69.806740
 H         -72.778931     -201.464554      -71.255501
