20
 generated by VMD
 C         -60.996117     -156.229446      -54.897713
 N         -60.256611     -155.612640      -55.454979
 H         -59.722839     -156.536224      -52.058525
 H         -61.747604     -156.668564      -54.248444
 C         -58.658554     -156.649506      -51.688049
 C         -57.952480     -155.366135      -51.554634
 C         -57.852535     -157.905777      -52.038887
 C         -56.775799     -155.587494      -50.774170
 C         -56.604599     -158.045303      -51.106583
 C         -55.858170     -156.756332      -51.074032
 H         -58.611164     -154.718002      -51.120571
 H         -57.709076     -154.905487      -52.508652
 H         -58.519798     -158.786942      -51.901752
 H         -57.592617     -157.807678      -53.157440
 H         -57.220013     -155.656158      -49.708698
 H         -56.299511     -154.582352      -50.622219
 H         -56.060963     -158.829208      -51.514774
 H         -56.805328     -158.442780      -50.071449
 H         -55.090584     -156.801193      -50.301594
 H         -55.366116     -156.667252      -52.078880
