20
 generated by VMD
 C         -30.491924      -92.795410      -26.208939
 N         -31.158022      -92.564049      -25.278545
 H         -32.868404      -90.328148      -26.282421
 H         -29.988552      -93.080971      -27.123941
 C         -33.350124      -90.635361      -27.188656
 C         -34.133160      -91.863144      -27.176058
 C         -33.194210      -89.948494      -28.500454
 C         -35.382973      -91.760880      -28.058649
 C         -34.531628      -89.780342      -29.261759
 C         -35.126602      -91.111320      -29.467937
 H         -34.292698      -92.342674      -26.087160
 H         -33.580845      -92.725517      -27.718945
 H         -32.665455      -89.017075      -28.287354
 H         -32.435070      -90.550720      -29.115562
 H         -36.006130      -90.991943      -27.625160
 H         -36.009102      -92.672173      -28.045586
 H         -34.421425      -89.113998      -30.133991
 H         -35.105480      -89.113731      -28.599298
 H         -35.900333      -90.849030      -30.146255
 H         -34.501724      -91.789368      -30.069670
