20
 generated by VMD
 C         -75.280304     -201.482620      -66.264076
 N         -75.808876     -202.320938      -65.680893
 H         -76.176903     -199.552261      -69.298981
 H         -74.747169     -200.659592      -66.812996
 C         -75.175377     -199.209427      -69.205070
 C         -74.854279     -198.142746      -68.197060
 C         -74.106422     -199.723022      -70.117531
 C         -73.354599     -197.979919      -68.142372
 C         -73.071640     -198.690155      -70.625603
 C         -72.875381     -197.589905      -69.487991
 H         -75.286484     -198.458939      -67.209099
 H         -75.340446     -197.206314      -68.612480
 H         -73.584976     -200.540558      -69.605515
 H         -74.409943     -200.349243      -71.025581
 H         -72.801559     -198.858643      -67.698021
 H         -73.069016     -197.176193      -67.345100
 H         -73.407951     -198.232178      -71.565727
 H         -72.160858     -199.323242      -70.751694
 H         -71.936943     -197.220535      -69.364815
 H         -73.481590     -196.655258      -69.863121
