20
 generated by VMD
 C         -21.738434      -52.448193      -11.314731
 N         -21.538950      -52.960350      -10.279460
 H         -19.806213      -50.946877      -14.057924
 H         -21.678619      -51.853519      -12.285702
 C         -18.735743      -50.964615      -13.782650
 C         -18.091316      -52.074131      -14.539474
 C         -18.388538      -50.859005      -12.317834
 C         -16.619514      -51.845428      -14.495966
 C         -16.905569      -51.021427      -12.098271
 C         -16.212860      -52.016697      -13.027427
 H         -18.599119      -52.170242      -15.501529
 H         -18.386230      -52.926426      -13.943086
 H         -18.652739      -49.948639      -11.874015
 H         -18.952688      -51.688477      -11.869418
 H         -16.397043      -50.845474      -14.903434
 H         -16.080822      -52.600407      -15.064342
 H         -16.762962      -51.265404      -10.977804
 H         -16.456198      -50.008541      -12.279717
 H         -15.097061      -51.887280      -13.083538
 H         -16.358326      -53.096851      -12.727002
