20
 generated by VMD
 C          -9.603843      -25.039280        0.650074
 N         -10.615335      -25.483046        0.802718
 H          -6.357061      -23.289331       -0.754017
 H          -7.998732      -22.932682       -1.343266
 C          -6.959409      -23.343258       -1.656560
 C          -7.145374      -24.616156       -2.337672
 C          -6.363462      -22.295179       -2.659858
 C          -8.105951      -24.500391       -3.464103
 C          -7.276280      -22.056969       -3.878494
 C          -7.628618      -23.440958       -4.517944
 H          -7.485908      -25.410286       -1.772795
 H          -6.174393      -24.973671       -2.689551
 H          -6.116277      -21.389214       -2.077048
 H          -5.465034      -22.723240       -3.075519
 H          -9.088157      -24.175894       -3.018030
 H          -8.289384      -25.454010       -3.929034
 H          -6.789970      -21.321884       -4.572523
 H          -8.219935      -21.626305       -3.510368
 H          -8.421535      -23.297529       -5.280102
 H          -6.701087      -23.820864       -4.891975
