20
 generated by VMD
 C         -50.470249     -129.441330      -43.191650
 N         -50.453117     -128.275986      -43.124783
 H         -48.659595     -127.968102      -39.946396
 H         -50.696632     -130.491623      -43.085762
 C         -47.645927     -127.857193      -40.257542
 C         -46.509285     -128.720139      -39.976837
 C         -47.201138     -126.556976      -40.936543
 C         -45.350010     -128.865555      -40.977821
 C         -46.183128     -126.662239      -42.054653
 C         -44.942886     -127.575844      -41.745609
 H         -46.851650     -129.762665      -39.611511
 H         -45.946751     -128.382645      -39.142132
 H         -48.212540     -126.178986      -41.325600
 H         -46.894470     -125.926689      -40.167263
 H         -45.774887     -129.457657      -41.744259
 H         -44.440720     -129.215210      -40.499977
 H         -45.780369     -125.716431      -42.302868
 H         -46.522068     -127.151726      -42.946678
 H         -44.420425     -127.942322      -42.597610
 H         -44.216370     -127.011612      -41.140991
