20
 generated by VMD
 C         -69.819275     -183.269501      -65.271736
 N         -69.745491     -182.378891      -66.008781
 H         -67.781967     -184.922043      -62.977463
 H         -69.882904     -184.060349      -64.600731
 C         -67.870110     -184.137466      -62.228539
 C         -67.993652     -184.502075      -60.726067
 C         -67.966202     -182.729279      -62.645180
 C         -67.157204     -183.493744      -59.928162
 C         -67.069351     -181.805908      -61.730721
 C         -67.418655     -181.970886      -60.233025
 H         -67.641167     -185.523865      -60.765682
 H         -69.044670     -184.381622      -60.481178
 H         -67.618622     -182.670944      -63.669590
 H         -69.001099     -182.313019      -62.612358
 H         -66.068314     -183.757172      -60.031036
 H         -67.513107     -183.643600      -58.870968
 H         -67.148773     -180.819458      -62.188725
 H         -66.056816     -182.081406      -61.834541
 H         -66.919373     -181.527374      -59.362465
 H         -68.525856     -181.938660      -60.092224
