20
 generated by VMD
 C         -57.678307     -166.147461      -56.469933
 N         -58.202454     -166.902740      -55.790039
 H         -60.614204     -165.413620      -54.519341
 H         -57.308533     -165.328339      -57.013062
 C         -61.509197     -165.417068      -55.118706
 C         -61.773342     -166.746674      -55.753704
 C         -62.478481     -164.295303      -55.388393
 C         -63.224155     -167.146423      -55.913506
 C         -63.918659     -164.604645      -55.685204
 C         -64.068939     -165.906128      -56.541679
 H         -61.286686     -167.537506      -55.082245
 H         -61.291252     -166.781326      -56.773712
 H         -62.273121     -163.563187      -54.561378
 H         -62.142395     -163.833237      -56.343746
 H         -63.713020     -167.573975      -54.950130
 H         -63.270493     -168.017715      -56.600945
 H         -64.426010     -163.631058      -56.194836
 H         -64.538834     -164.724731      -54.676510
 H         -65.139191     -166.186447      -56.707043
 H         -63.516422     -165.716202      -57.498825
