20
 generated by VMD
 C         -56.669437     -149.974899      -47.798027
 N         -57.582947     -150.454346      -48.223358
 H         -53.578453     -148.485336      -47.307560
 H         -55.749611     -149.626816      -47.288635
 C         -53.890827     -148.334137      -48.365284
 C         -53.272987     -148.879242      -49.561378
 C         -54.691555     -147.023392      -48.544548
 C         -54.210854     -148.984940      -50.799503
 C         -55.579933     -147.093033      -49.820766
 C         -54.849163     -147.614639      -50.971764
 H         -52.803459     -149.825500      -49.594429
 H         -52.372494     -148.247360      -49.829227
 H         -55.361282     -146.978394      -47.698788
 H         -53.942272     -146.138657      -48.441006
 H         -54.790272     -149.898987      -50.800701
 H         -53.559742     -148.947174      -51.715630
 H         -55.936996     -146.137192      -50.069267
 H         -56.538937     -147.674698      -49.618729
 H         -55.418022     -147.668930      -51.874172
 H         -53.965572     -146.948257      -51.190861
