20
 generated by VMD
 C         -29.067142      -73.768509      -19.422220
 N         -29.958977      -74.512924      -19.438936
 H         -25.240257      -73.185295      -18.762857
 H         -28.388149      -72.942734      -19.663576
 C         -25.532825      -73.094872      -19.835190
 C         -25.263756      -74.355721      -20.728312
 C         -25.770504      -71.754181      -20.448206
 C         -25.803434      -74.208244      -22.185610
 C         -26.214985      -71.790749      -21.818108
 C         -25.546928      -72.752495      -22.774233
 H         -25.724754      -75.160103      -20.279697
 H         -24.156263      -74.541634      -20.785814
 H         -26.562016      -71.193855      -20.018038
 H         -24.862850      -71.174469      -20.195921
 H         -26.850399      -74.507599      -22.193996
 H         -25.329117      -74.964180      -22.850037
 H         -25.979153      -70.821922      -22.261812
 H         -27.361101      -71.935127      -21.993612
 H         -26.023842      -72.603378      -23.712454
 H         -24.447693      -72.568199      -22.864460
