20
 generated by VMD
 C         -50.431427     -129.375290      -43.576660
 N         -50.856937     -129.641846      -44.602531
 H         -48.968845     -127.922501      -40.262295
 H         -50.203434     -129.151901      -42.541866
 C         -47.963181     -128.125443      -40.576939
 C         -47.426819     -129.476578      -40.437126
 C         -46.942039     -127.048706      -40.664604
 C         -46.301582     -129.799438      -41.392307
 C         -45.795208     -127.343224      -41.650990
 C         -45.134907     -128.730453      -41.508553
 H         -48.306396     -130.132355      -40.582790
 H         -47.096020     -129.796722      -39.402695
 H         -47.479160     -125.999031      -40.997177
 H         -46.457611     -126.909897      -39.741489
 H         -46.616344     -129.938034      -42.466042
 H         -45.923664     -130.865433      -41.423397
 H         -45.170982     -126.437088      -41.656521
 H         -46.194065     -127.284363      -42.724785
 H         -44.586983     -129.072662      -42.446304
 H         -44.486385     -128.757111      -40.615795
