20
 generated by VMD
 C         -76.503471     -203.087097      -66.575409
 N         -77.281738     -203.532440      -65.852211
 H         -75.711845     -200.484131      -69.024101
 H         -75.963188     -202.708115      -67.486465
 C         -74.774765     -199.862106      -68.995796
 C         -74.805656     -198.425537      -68.522125
 C         -73.667587     -200.370346      -69.843407
 C         -73.459961     -197.735001      -68.814133
 C         -73.186188     -199.290558      -70.847473
 C         -72.777359     -197.979050      -70.088104
 H         -75.036331     -198.366882      -67.467644
 H         -75.689384     -197.878174      -69.037216
 H         -72.744461     -200.622314      -69.243530
 H         -74.201447     -201.222321      -70.346100
 H         -72.796059     -197.708664      -67.894569
 H         -73.664284     -196.683823      -68.933578
 H         -73.948647     -198.974319      -71.637138
 H         -72.397240     -199.767654      -71.424568
 H         -71.781754     -198.134216      -69.863335
 H         -72.710777     -197.180283      -70.922325
