20
 generated by VMD
 C         -25.674362      -71.376411      -16.844639
 N         -26.296553      -72.237198      -16.424706
 H         -24.357767      -69.056961      -18.630201
 H         -24.873346      -70.660126      -17.280434
 C         -24.798094      -69.459946      -19.550636
 C         -24.023880      -70.504509      -20.488598
 C         -25.824299      -68.543167      -20.188345
 C         -24.976460      -71.391586      -21.318123
 C         -26.821514      -69.425034      -21.114475
 C         -26.000963      -70.502731      -22.028696
 H         -23.312172      -71.065590      -19.783520
 H         -23.490129      -69.813148      -21.121864
 H         -26.372747      -67.985001      -19.390856
 H         -25.288786      -67.831383      -20.902523
 H         -25.511715      -72.238762      -20.816078
 H         -24.445805      -71.898949      -22.151699
 H         -27.357710      -68.733902      -21.827702
 H         -27.502314      -69.840324      -20.347424
 H         -26.650063      -71.237366      -22.527166
 H         -25.424900      -69.869812      -22.693430
