20
 generated by VMD
 C         -58.590034     -161.919098      -56.527874
 N         -57.720730     -161.243515      -56.134869
 H         -59.527748     -164.861801      -55.418102
 H         -59.335361     -162.578079      -56.909260
 C         -60.299313     -164.322205      -54.899467
 C         -59.926304     -163.572495      -53.606808
 C         -61.707733     -164.407791      -55.382397
 C         -60.944656     -162.445740      -53.160355
 C         -62.514538     -163.218262      -54.939373
 C         -62.438877     -162.862518      -53.445423
 H         -58.931873     -163.088104      -53.787758
 H         -59.962326     -164.463821      -52.832088
 H         -61.780064     -164.515182      -56.424244
 H         -62.008221     -165.339172      -54.823200
 H         -60.926460     -161.458939      -53.735508
 H         -60.940205     -162.159912      -52.117889
 H         -63.406170     -163.275650      -55.323357
 H         -62.031490     -162.374588      -55.436405
 H         -63.106316     -161.973755      -53.425144
 H         -62.887863     -163.634567      -52.734871
