20
 generated by VMD
 C         -69.040504     -181.172958      -61.259590
 N         -69.905396     -180.527390      -60.828709
 H         -67.229233     -178.509140      -59.654129
 H         -68.206451     -181.806137      -61.614243
 C         -66.302223     -178.077164      -59.846573
 C         -65.703491     -178.365097      -61.229298
 C         -65.406494     -177.417038      -58.798103
 C         -65.117531     -177.070312      -61.737701
 C         -64.816711     -176.175888      -59.314342
 C         -64.149208     -176.417648      -60.677143
 H         -66.515770     -178.640396      -61.904549
 H         -64.958984     -179.195023      -61.225533
 H         -65.957184     -177.330902      -57.824802
 H         -64.537575     -178.134018      -58.597851
 H         -66.015015     -176.247284      -61.934330
 H         -64.533447     -177.205688      -62.704906
 H         -63.933105     -175.844101      -58.736065
 H         -65.589348     -175.391724      -59.285141
 H         -63.510113     -175.621124      -61.145340
 H         -63.396088     -177.306335      -60.543282
