20
 generated by VMD
 C         -44.884018     -122.486954      -35.539150
 N         -45.073471     -123.415680      -34.914787
 H         -45.023582     -122.735054      -38.933228
 H         -44.563606     -121.660851      -36.220272
 C         -44.931301     -121.793549      -39.382572
 C         -43.554401     -121.358116      -39.627831
 C         -46.010757     -120.819817      -39.616375
 C         -43.327522     -120.379440      -40.828403
 C         -45.720695     -119.781876      -40.711166
 C         -44.284981     -119.208344      -40.628910
 H         -43.050987     -122.295906      -39.813995
 H         -43.074501     -120.938660      -38.643005
 H         -46.985115     -121.222008      -40.036263
 H         -46.224957     -120.386688      -38.637707
 H         -43.649876     -120.886330      -41.802101
 H         -42.335941     -120.087509      -40.639137
 H         -46.374359     -118.908119      -40.604160
 H         -45.814468     -120.212517      -41.636330
 H         -44.093311     -118.321297      -41.319710
 H         -44.115856     -118.844803      -39.542324
