20
 generated by VMD
 C         -44.896301     -122.483940      -35.541954
 N         -45.083961     -123.441193      -34.912312
 H         -45.093262     -122.775520      -38.975960
 H         -44.500324     -121.648598      -36.177212
 C         -44.922638     -121.813187      -39.382595
 C         -43.561745     -121.344551      -39.625217
 C         -46.015381     -120.808746      -39.625931
 C         -43.321857     -120.391052      -40.825966
 C         -45.707172     -119.766937      -40.701271
 C         -44.294262     -119.211990      -40.648186
 H         -43.051876     -122.290939      -39.786003
 H         -43.033428     -120.937363      -38.806393
 H         -47.041321     -121.263199      -40.003113
 H         -46.178150     -120.347443      -38.591034
 H         -43.586975     -120.975861      -41.734447
 H         -42.286888     -120.094894      -40.667553
 H         -46.442719     -118.932610      -40.594788
 H         -45.781845     -120.346466      -41.640427
 H         -44.138294     -118.343758      -41.348347
 H         -44.167366     -118.833633      -39.547371
