20
 generated by VMD
 C         -74.647385     -201.506836      -65.998138
 N         -73.637383     -200.968048      -66.038208
 H         -76.307617     -199.076035      -68.667595
 H         -75.478470     -202.142029      -66.151215
 C         -75.501335     -198.375946      -68.840195
 C         -75.014656     -197.138062      -68.167747
 C         -74.566780     -198.970642      -69.918037
 C         -73.479103     -196.858978      -68.081451
 C         -73.141197     -198.399002      -70.054062
 C         -72.540710     -197.799408      -68.729782
 H         -75.409248     -197.165588      -67.087387
 H         -75.506966     -196.299530      -68.536140
 H         -74.586273     -200.033234      -69.705856
 H         -75.024696     -198.806564      -70.839104
 H         -73.122498     -196.823959      -67.017181
 H         -73.473602     -195.849823      -68.563042
 H         -73.205040     -197.657669      -70.808945
 H         -72.403763     -199.038818      -70.555283
 H         -72.249405     -198.627014      -68.095634
 H         -71.601990     -197.259155      -68.852768
