20
 generated by VMD
 C         -28.017355      -86.327293      -26.193922
 N         -28.084600      -87.089890      -27.036272
 H         -31.017288      -86.755363      -25.347677
 H         -28.073257      -85.565742      -25.521845
 C         -31.946056      -87.238716      -25.636711
 C         -32.914070      -87.743912      -24.541275
 C         -32.140022      -87.689545      -27.105465
 C         -34.344849      -87.551514      -25.079813
 C         -33.478298      -87.470810      -27.448858
 C         -34.504169      -88.092781      -26.526051
 H         -32.846992      -87.132225      -23.629440
 H         -32.607815      -88.699615      -24.320326
 H         -31.428965      -87.080795      -27.727127
 H         -31.893112      -88.733124      -27.146723
 H         -34.781513      -86.508041      -25.137402
 H         -35.207996      -88.084023      -24.499453
 H         -33.688026      -87.964958      -28.331642
 H         -33.674656      -86.416138      -27.687248
 H         -35.516785      -87.800247      -26.866354
 H         -34.370697      -89.151901      -26.562664
