20
 generated by VMD
 C         -33.619480      -96.362778      -25.638861
 N         -34.462566      -96.563332      -26.381924
 H         -35.187355      -94.003395      -27.317078
 H         -32.787510      -96.246582      -24.843943
 C         -34.876438      -94.207138      -28.333250
 C         -35.937420      -94.683510      -29.336111
 C         -33.552006      -93.803551      -28.955923
 C         -36.145100      -93.861656      -30.574057
 C         -33.751583      -92.991539      -30.267767
 C         -34.772667      -93.465736      -31.198418
 H         -36.943604      -94.815224      -28.891205
 H         -35.645710      -95.683693      -29.628906
 H         -32.940239      -93.332253      -28.210335
 H         -33.012054      -94.651016      -29.320894
 H         -36.657303      -92.901482      -30.201059
 H         -36.767601      -94.375305      -31.287035
 H         -32.707794      -92.980019      -30.721676
 H         -34.052132      -91.962242      -30.019495
 H         -34.947224      -92.546135      -31.991266
 H         -34.520195      -94.339516      -31.858953
