20
 generated by VMD
 C         -27.942802      -81.213531      -27.551830
 N         -29.108768      -81.253403      -27.500387
 H         -29.725733      -82.997498      -25.042896
 H         -26.826963      -81.119583      -27.590054
 C         -30.172415      -83.866783      -24.568537
 C         -30.284855      -83.946297      -23.018251
 C         -30.998619      -84.846550      -25.480291
 C         -31.593718      -84.363075      -22.503223
 C         -32.328865      -85.198845      -24.849222
 C         -32.256908      -85.502731      -23.377306
 H         -30.003187      -83.016731      -22.586256
 H         -29.467155      -84.551994      -22.713968
 H         -31.157759      -84.437714      -26.520224
 H         -30.585114      -85.799812      -25.783535
 H         -32.233555      -83.419899      -22.525829
 H         -31.459627      -84.801010      -21.557541
 H         -32.612381      -86.108757      -25.209749
 H         -33.070545      -84.404060      -25.014885
 H         -33.211205      -85.773178      -22.890682
 H         -31.621374      -86.293556      -23.176950
