20
 generated by VMD
 C         -47.364578     -138.993195      -45.692219
 N         -46.844212     -138.572556      -46.624783
 H         -50.765831     -138.482635      -44.656174
 H         -47.790337     -139.378860      -44.782829
 C         -51.686474     -138.844788      -45.112617
 C         -51.851059     -139.172897      -46.536419
 C         -52.911777     -138.449097      -44.380844
 C         -52.944878     -140.126892      -46.800213
 C         -54.066452     -139.418869      -44.687092
 C         -54.215946     -139.695358      -46.122299
 H         -50.990681     -139.444855      -47.064526
 H         -52.172699     -138.225708      -47.007504
 H         -52.731110     -138.297043      -43.317047
 H         -53.229362     -137.472000      -44.716843
 H         -52.499691     -141.037277      -46.385448
 H         -53.157867     -140.321671      -47.898834
 H         -55.020996     -138.903473      -44.327068
 H         -54.017231     -140.268753      -44.076279
 H         -55.018467     -140.403976      -46.241581
 H         -54.804005     -138.831482      -46.637764
