20
 generated by VMD
 C         -29.481516      -89.851990      -25.283400
 N         -29.138184      -90.943443      -25.550453
 H         -32.159817      -91.576332      -27.543627
 H         -29.990763      -88.867821      -25.016586
 C         -33.048443      -90.939278      -27.583130
 C         -34.433609      -91.384552      -27.518869
 C         -32.827831      -89.711143      -28.313204
 C         -35.451576      -90.221115      -27.074528
 C         -33.922722      -88.625534      -28.041716
 C         -35.326588      -89.195297      -28.188648
 H         -34.433193      -92.224220      -26.864656
 H         -34.756088      -91.928467      -28.443880
 H         -31.916834      -89.155464      -28.006258
 H         -32.672005      -89.912369      -29.402052
 H         -35.098019      -89.832985      -26.161715
 H         -36.304882      -90.730988      -27.011497
 H         -33.893520      -87.757812      -28.652924
 H         -33.823574      -88.177315      -27.055098
 H         -36.110592      -88.406647      -28.349161
 H         -35.391270      -89.796104      -29.209429
