20
 generated by VMD
 C         -75.308220     -201.608414      -66.210793
 N         -75.948524     -202.404083      -65.687271
 H         -76.206268     -199.741623      -69.132294
 H         -74.838135     -200.905441      -66.871346
 C         -75.170967     -199.330414      -69.240585
 C         -74.816193     -198.203354      -68.296341
 C         -74.139793     -199.796265      -70.153519
 C         -73.325905     -197.854980      -68.149315
 C         -73.121323     -198.669586      -70.493973
 C         -72.797928     -197.570587      -69.593246
 H         -75.241310     -198.416214      -67.290329
 H         -75.434120     -197.396942      -68.608109
 H         -73.610031     -200.649628      -69.673820
 H         -74.604393     -200.088684      -71.061333
 H         -72.801537     -198.657471      -67.673187
 H         -73.247910     -197.075241      -67.441330
 H         -73.447578     -198.097794      -71.377861
 H         -72.231522     -199.281021      -70.790642
 H         -71.601799     -197.440598      -69.545952
 H         -73.112282     -196.629807      -69.893143
