20
 generated by VMD
 C         -47.512230     -138.207428      -45.739689
 N         -47.160568     -138.048035      -46.876060
 H         -50.537853     -137.601730      -44.875656
 H         -47.790363     -138.580307      -44.762146
 C         -51.417259     -138.210342      -45.003544
 C         -51.516037     -138.902786      -46.240635
 C         -52.611862     -138.003418      -44.154301
 C         -52.666607     -139.909531      -46.383759
 C         -53.727196     -139.040192      -44.385704
 C         -53.989780     -139.259811      -45.836872
 H         -50.653637     -139.570160      -46.541935
 H         -51.770374     -138.087967      -46.943073
 H         -52.212368     -138.147171      -43.141674
 H         -53.048161     -136.994034      -44.398319
 H         -52.466675     -140.776886      -45.701828
 H         -52.694038     -140.118515      -47.444801
 H         -54.682297     -138.645996      -44.073139
 H         -53.380680     -140.088821      -43.836868
 H         -54.749210     -139.912384      -45.903683
 H         -54.262695     -138.317184      -46.305042
