20
 generated by VMD
 C         -47.955826     -139.867859      -46.080227
 N         -46.822289     -139.528061      -45.824574
 H         -51.119816     -138.577759      -45.017006
 H         -49.014999     -139.956436      -46.310520
 C         -51.938976     -139.204086      -45.388088
 C         -52.017967     -139.440720      -46.939301
 C         -53.170506     -139.029266      -44.612846
 C         -53.058838     -140.471603      -47.192738
 C         -54.274269     -140.081329      -45.060650
 C         -54.337021     -140.099442      -46.498264
 H         -51.078465     -139.725433      -47.328766
 H         -52.425785     -138.563324      -47.462883
 H         -52.830723     -139.205902      -43.561920
 H         -53.652164     -137.996552      -44.495136
 H         -52.690193     -141.300980      -46.681561
 H         -53.209541     -140.703659      -48.238281
 H         -55.196793     -139.663315      -44.460587
 H         -54.029095     -141.103149      -44.752956
 H         -55.032417     -140.954865      -46.776257
 H         -54.835526     -139.296997      -47.060745
