20
 generated by VMD
 C         -59.736103     -157.337402      -56.901672
 N         -60.825680     -156.999847      -57.016193
 H         -59.652714     -157.328339      -53.278324
 H         -58.723423     -157.548950      -56.723267
 C         -59.169346     -157.857101      -52.451130
 C         -57.849728     -157.298477      -51.908848
 C         -59.455227     -159.321518      -52.498600
 C         -57.391289     -158.062042      -50.774590
 C         -58.679169     -160.112732      -51.447697
 C         -57.308319     -159.524857      -51.145321
 H         -58.062435     -156.369156      -51.567726
 H         -57.241837     -157.153580      -52.748840
 H         -60.474201     -159.687912      -52.301315
 H         -59.116035     -159.574356      -53.500973
 H         -57.927551     -157.860397      -49.885242
 H         -56.440739     -157.712585      -50.418575
 H         -58.675526     -161.162109      -51.638927
 H         -59.282543     -160.000214      -50.585709
 H         -57.076401     -159.953079      -50.113598
 H         -56.550869     -159.691559      -51.845440
