20
 generated by VMD
 C         -47.941193     -139.801971      -46.101379
 N         -46.800163     -139.475967      -45.858627
 H         -50.906219     -138.708847      -45.024227
 H         -49.027981     -140.042938      -46.231865
 C         -51.844173     -139.144821      -45.384892
 C         -52.000034     -139.370865      -46.795887
 C         -53.164589     -139.028519      -44.652218
 C         -53.051025     -140.484558      -47.131298
 C         -54.243050     -140.009979      -44.994946
 C         -54.432838     -140.152908      -46.572033
 H         -51.076653     -139.834167      -47.149750
 H         -52.193241     -138.347794      -47.222313
 H         -53.105637     -139.125244      -43.571465
 H         -53.468510     -138.085709      -45.039875
 H         -52.804344     -141.546173      -46.918789
 H         -53.197739     -140.414703      -48.246883
 H         -55.226246     -139.734375      -44.633282
 H         -53.930241     -140.937378      -44.459961
 H         -55.348347     -140.924164      -46.761303
 H         -54.794003     -139.140900      -46.821232
