20
 generated by VMD
 C         -20.175163      -56.150791      -16.716822
 N         -21.317858      -56.243389      -16.906082
 H         -22.471050      -59.106686      -17.132021
 H         -19.171318      -56.133869      -16.831379
 C         -22.358664      -59.794369      -16.325769
 C         -22.371958      -59.205959      -14.847071
 C         -21.935472      -61.182106      -16.527727
 C         -21.253836      -59.750038      -13.991274
 C         -20.689064      -61.502716      -15.649118
 C         -21.042650      -61.175106      -14.127223
 H         -23.291218      -59.580978      -14.314819
 H         -22.542360      -58.097801      -14.758681
 H         -22.712143      -61.883987      -16.356838
 H         -21.620747      -61.253647      -17.549467
 H         -21.364607      -59.498894      -12.962754
 H         -20.314739      -59.273018      -14.309304
 H         -19.829645      -60.857365      -15.939672
 H         -20.138819      -62.440029      -15.780936
 H         -21.938961      -61.762516      -13.944916
 H         -20.221750      -61.431576      -13.402497
