20
 generated by VMD
 C         -50.722103     -130.007187      -44.988483
 N         -51.593258     -129.187347      -45.064465
 H         -49.203892     -129.654953      -42.711964
 H         -49.920773     -130.744217      -44.777870
 C         -48.239655     -129.744034      -42.229977
 C         -47.931767     -131.142899      -41.610531
 C         -47.453590     -128.540970      -41.610512
 C         -46.499828     -131.305481      -41.145401
 C         -45.995468     -128.837875      -41.174259
 C         -46.002132     -130.149719      -40.344746
 H         -48.269596     -131.932083      -42.176510
 H         -48.526329     -131.186935      -40.655415
 H         -47.470306     -127.608086      -42.341614
 H         -47.940609     -128.280411      -40.723640
 H         -45.752697     -131.476364      -41.951935
 H         -46.277996     -132.266403      -40.526550
 H         -45.642963     -128.050125      -40.456215
 H         -45.324554     -128.916016      -42.046257
 H         -44.972122     -130.237747      -39.981415
 H         -46.741600     -130.035568      -39.503590
