20
 generated by VMD
 C         -48.221748     -133.640152      -47.387108
 N         -48.141617     -133.283096      -48.528183
 H         -49.453552     -134.134918      -44.329018
 H         -48.554111     -134.135330      -46.504532
 C         -49.951385     -134.949799      -43.767757
 C         -50.043785     -136.192688      -44.494240
 C         -50.871441     -134.589447      -42.648312
 C         -50.459373     -137.428421      -43.600533
 C         -51.334610     -135.798019      -41.813683
 C         -51.652946     -137.050705      -42.555668
 H         -49.043812     -136.376297      -44.935482
 H         -50.741577     -136.005630      -45.395008
 H         -50.400436     -133.856445      -41.995373
 H         -51.889889     -134.151947      -43.063309
 H         -49.522526     -137.782043      -43.066605
 H         -50.846737     -138.285522      -44.130199
 H         -52.132248     -135.575516      -41.075420
 H         -50.515438     -136.011002      -41.181416
 H         -51.744488     -137.804565      -41.797440
 H         -52.520546     -136.766434      -43.179882
