20
 generated by VMD
 C         -23.038017      -54.980679      -16.761593
 N         -23.751905      -55.135994      -15.767398
 H         -19.890972      -55.445259      -15.396061
 H         -22.511822      -54.657486      -17.587217
 C         -19.205437      -55.939240      -14.736761
 C         -19.256796      -55.841236      -13.265623
 C         -18.436954      -57.141403      -15.276989
 C         -20.280111      -56.927311      -12.876516
 C         -19.149082      -58.433167      -14.744282
 C         -19.620951      -58.360634      -13.219214
 H         -19.715349      -54.891296      -13.008246
 H         -18.317686      -56.052433      -12.812400
 H         -18.444567      -56.906673      -16.387901
 H         -17.442131      -57.084610      -14.873537
 H         -21.232967      -56.854469      -13.442928
 H         -20.534010      -56.817638      -11.829539
 H         -18.564131      -59.358849      -15.023799
 H         -20.102465      -58.600498      -15.302350
 H         -20.401890      -59.128605      -12.966634
 H         -18.766800      -58.489326      -12.582132
