20
 generated by VMD
 C         -38.096416     -110.025345      -36.208485
 N         -37.531574     -109.033012      -36.145176
 H         -40.350574     -113.010834      -36.720985
 H         -38.679958     -110.901161      -36.212788
 C         -41.187801     -113.083168      -36.076229
 C         -42.391399     -113.862259      -36.600750
 C         -41.396980     -111.869164      -35.120811
 C         -43.454418     -114.126305      -35.561451
 C         -42.516968     -112.225571      -34.154530
 C         -43.763901     -113.007500      -34.629780
 H         -41.972275     -114.859825      -36.924927
 H         -42.697556     -113.339325      -37.477066
 H         -40.520721     -111.465714      -34.570488
 H         -41.870682     -110.997299      -35.629139
 H         -42.992531     -114.911499      -34.946850
 H         -44.379208     -114.601036      -36.024273
 H         -42.758869     -111.280907      -33.586803
 H         -42.142155     -112.876343      -33.319328
 H         -44.361866     -113.176247      -33.674034
 H         -44.376019     -112.342628      -35.210957
