20
 generated by VMD
 C         -57.548782     -165.975159      -56.570835
 N         -58.039040     -166.802444      -55.979351
 H         -60.655621     -164.998032      -54.412655
 H         -57.189705     -165.080429      -57.058094
 C         -61.594273     -165.303726      -54.871727
 C         -61.821239     -166.676361      -55.463848
 C         -62.388706     -164.191971      -55.423481
 C         -63.322201     -167.025131      -55.804832
 C         -63.871323     -164.629776      -55.658871
 C         -64.009186     -165.847885      -56.598061
 H         -61.328045     -167.417618      -54.841675
 H         -61.220356     -166.537628      -56.352890
 H         -62.205776     -163.234207      -54.791801
 H         -61.904736     -164.051636      -56.409195
 H         -64.043953     -167.285645      -54.935230
 H         -63.268757     -167.938629      -56.432343
 H         -64.450180     -163.814728      -56.044361
 H         -64.467461     -164.804230      -54.748531
 H         -64.992920     -166.203918      -56.725853
 H         -63.437866     -165.695541      -57.493153
