20
 generated by VMD
 C         -41.467651     -120.210449      -34.027847
 N         -42.071861     -121.086700      -34.470993
 H         -43.347298     -119.197685      -37.291481
 H         -41.122978     -119.327415      -33.412811
 C         -43.928234     -118.896942      -38.197670
 C         -43.079395     -118.650970      -39.399311
 C         -45.372169     -118.270035      -38.057560
 C         -43.972095     -118.791443      -40.653362
 C         -46.087494     -118.345695      -39.375767
 C         -45.219769     -117.968254      -40.616810
 H         -42.181702     -119.341743      -39.565971
 H         -42.775181     -117.619797      -39.393311
 H         -45.954498     -118.850410      -37.280781
 H         -45.253201     -117.215668      -37.757587
 H         -44.224957     -119.893227      -40.673828
 H         -43.413479     -118.562973      -41.617920
 H         -46.912666     -117.651611      -39.387348
 H         -46.414188     -119.276176      -39.525856
 H         -45.789745     -118.170929      -41.538872
 H         -44.733204     -117.031349      -40.561741
