20
 generated by VMD
 C         -59.495953     -158.272339      -57.421093
 N         -58.396217     -158.485458      -57.880474
 H         -60.424976     -158.387314      -53.559570
 H         -60.508011     -158.071823      -57.064514
 C         -59.968887     -159.258820      -53.085049
 C         -58.579849     -159.401062      -52.375751
 C         -60.752708     -160.570938      -53.273617
 C         -58.424164     -160.328018      -51.203739
 C         -60.516865     -161.515762      -52.088070
 C         -59.014256     -161.710205      -51.741566
 H         -58.330467     -158.316101      -52.127884
 H         -57.781685     -159.534943      -53.123528
 H         -61.826183     -160.446594      -53.479839
 H         -60.347801     -161.168930      -54.031250
 H         -59.057487     -160.085739      -50.335373
 H         -57.391323     -160.460464      -50.946880
 H         -61.110519     -162.415848      -52.321548
 H         -60.945122     -161.212509      -51.141685
 H         -58.969704     -162.423004      -50.893120
 H         -58.483589     -162.026642      -52.673698
