20
 generated by VMD
 C         -79.156998     -205.742050      -73.888527
 N         -79.176216     -206.888062      -73.610001
 H         -78.696236     -206.258835      -70.545761
 H         -79.162193     -204.660645      -74.026527
 C         -77.628471     -206.363678      -70.515205
 C         -76.762238     -205.524017      -71.331352
 C         -77.210464     -207.584259      -69.858833
 C         -75.328377     -205.338287      -70.821274
 C         -75.836464     -207.451309      -69.223885
 C         -74.877205     -206.769684      -70.215858
 H         -77.066566     -204.436966      -71.216866
 H         -76.837166     -205.750214      -72.485786
 H         -77.789795     -207.873199      -68.969414
 H         -77.313637     -208.393005      -70.553185
 H         -75.374069     -204.629486      -69.930649
 H         -74.566978     -205.026505      -71.539734
 H         -75.492737     -208.349396      -68.783440
 H         -76.035927     -206.784851      -68.287422
 H         -73.943985     -206.473511      -69.679909
 H         -74.664558     -207.577225      -70.866142
