20
 generated by VMD
 C         -47.868408     -124.829468      -38.381248
 N         -47.095989     -125.634506      -38.763161
 H         -45.072945     -122.906197      -37.673637
 H         -48.791019     -124.191833      -38.309921
 C         -45.166004     -122.927902      -38.775139
 C         -43.940353     -123.643936      -39.430950
 C         -45.759514     -121.847275      -39.550133
 C         -44.266262     -124.148163      -40.848255
 C         -46.008636     -122.197266      -41.040825
 C         -44.961235     -122.996590      -41.698009
 H         -43.765549     -124.517899      -38.712479
 H         -42.977097     -123.045601      -39.499763
 H         -46.636959     -121.383064      -39.143284
 H         -45.001190     -121.036346      -39.625027
 H         -44.949883     -125.050674      -40.670795
 H         -43.228985     -124.384697      -41.333794
 H         -46.129932     -121.292641      -41.655895
 H         -46.889320     -122.938591      -41.031864
 H         -45.460052     -123.477509      -42.606438
 H         -44.182976     -122.325081      -42.126202
