20
 generated by VMD
 C         -55.915371     -149.152435      -45.834526
 N         -55.640755     -150.045624      -45.088921
 H         -54.309490     -148.372482      -48.128555
 H         -56.222534     -148.432022      -46.561665
 C         -54.211002     -147.440155      -48.748562
 C         -53.052952     -147.491714      -49.851112
 C         -54.791512     -146.003738      -48.540565
 C         -53.555553     -146.747360      -51.155647
 C         -55.323929     -145.360382      -49.850815
 C         -54.082821     -145.312759      -50.794426
 H         -52.592514     -148.503189      -49.874813
 H         -52.115398     -146.864044      -49.535553
 H         -55.644447     -145.952026      -47.838936
 H         -53.930908     -145.302521      -48.062794
 H         -54.314686     -147.454041      -51.638130
 H         -52.688190     -146.633987      -51.920906
 H         -55.676357     -144.232483      -49.748932
 H         -56.004311     -146.056412      -50.274204
 H         -54.437798     -144.935913      -51.769260
 H         -53.402611     -144.572418      -50.359772
