20
 generated by VMD
 C         -49.891548     -127.691628      -39.164272
 N         -49.325363     -126.689819      -38.993744
 H         -47.198399     -126.131363      -40.733124
 H         -50.651875     -128.475571      -39.163200
 C         -46.335541     -125.460030      -40.931004
 C         -44.948101     -126.027328      -40.513390
 C         -46.544811     -123.979645      -41.248901
 C         -43.738647     -125.044327      -40.788177
 C         -45.269794     -123.139755      -41.471279
 C         -44.174267     -123.615288      -40.612522
 H         -44.732224     -127.021935      -41.014381
 H         -45.062313     -126.252182      -39.490681
 H         -47.206970     -123.754333      -42.137661
 H         -46.990971     -123.583054      -40.203758
 H         -43.309052     -125.193771      -41.760487
 H         -42.895584     -125.155609      -40.110550
 H         -45.461887     -121.967720      -41.193657
 H         -44.775097     -123.136414      -42.490070
 H         -43.393463     -122.887398      -40.687130
 H         -44.509064     -123.539703      -39.520317
