20
 generated by VMD
 C         -38.675198      -98.890350      -27.445747
 N         -37.906895      -99.402725      -26.738691
 H         -37.218830      -97.214699      -30.315971
 H         -39.237022      -98.388168      -28.298223
 C         -36.197380      -97.184349      -30.542610
 C         -35.565750      -97.710732      -31.816793
 C         -35.417393      -96.589394      -29.483738
 C         -34.372593      -96.893425      -32.315800
 C         -34.338661      -95.705482      -29.975569
 C         -33.525620      -96.450569      -31.059692
 H         -36.246166      -97.820305      -32.641876
 H         -35.172077      -98.782188      -31.647236
 H         -36.154854      -96.065216      -28.929714
 H         -34.972500      -97.353592      -28.825237
 H         -34.809483      -96.151825      -32.891254
 H         -33.828491      -97.511543      -33.102390
 H         -33.683598      -95.248787      -29.163134
 H         -34.827400      -94.914398      -30.531963
 H         -32.615517      -95.880707      -31.389595
 H         -33.130333      -97.325455      -30.552591
