20
 generated by VMD
 C          -3.518462      -17.394350        2.156207
 N          -3.161414      -18.450258        2.206666
 H          -5.657535      -20.409512        0.657312
 H          -5.997457      -21.017612       -1.014111
 C          -6.125439      -20.203667       -0.305323
 C          -5.498947      -18.970772       -0.902066
 C          -7.553807      -19.981543       -0.092946
 C          -6.226834      -18.301638       -2.124952
 C          -8.309426      -19.343197       -1.270167
 C          -7.693149      -18.061760       -1.808302
 H          -4.411333      -19.041084       -1.196731
 H          -5.527980      -18.227919       -0.076492
 H          -8.016150      -20.863813        0.188219
 H          -7.723825      -19.425570        0.807984
 H          -6.157582      -18.904411       -2.962136
 H          -5.723074      -17.377062       -2.392308
 H          -9.327961      -19.201307       -0.902349
 H          -8.383224      -20.051641       -2.081767
 H          -8.215901      -17.587683       -2.635645
 H          -7.694609      -17.267958       -1.020414
