20
 generated by VMD
 C         -78.904808     -209.344543      -76.551781
 N         -79.690514     -208.886047      -77.218239
 H         -77.729752     -209.266525      -73.259712
 H         -78.129227     -209.909988      -75.962074
 C         -77.998062     -209.820526      -72.370941
 C         -76.969978     -210.211349      -71.342583
 C         -79.092773     -210.795776      -72.576332
 C         -77.449760     -210.847855      -70.045372
 C         -79.602242     -211.650406      -71.290649
 C         -78.314865     -212.086197      -70.350365
 H         -76.519714     -209.220016      -71.062126
 H         -76.100319     -210.813553      -71.735207
 H         -79.904633     -210.180145      -72.977631
 H         -78.866112     -211.600998      -73.362022
 H         -77.966255     -210.078873      -69.429802
 H         -76.610634     -211.081970      -69.356354
 H         -80.137733     -212.493759      -71.471092
 H         -80.205414     -210.861908      -70.700073
 H         -78.603851     -212.394669      -69.341133
 H         -77.819702     -212.954071      -70.803879
