20
 generated by VMD
 C         -19.955027      -59.887680      -17.669487
 N         -19.461449      -58.914505      -18.122396
 H         -23.347441      -59.721333      -15.976022
 H         -20.339800      -60.568634      -16.936571
 C         -23.033451      -60.826645      -15.959957
 C         -23.139359      -61.544098      -17.307596
 C         -22.975687      -61.439953      -14.636892
 C         -22.951851      -63.060841      -17.269579
 C         -22.702553      -62.921154      -14.762996
 C         -23.213295      -63.708706      -15.909007
 H         -22.381565      -61.114929      -18.076571
 H         -24.181322      -61.271877      -17.687117
 H         -22.489971      -61.015785      -13.743053
 H         -24.025278      -61.293335      -14.261184
 H         -21.899029      -63.190552      -17.490101
 H         -23.623764      -63.529575      -17.956329
 H         -23.021650      -63.384327      -13.799384
 H         -21.591612      -63.056450      -14.629510
 H         -22.653534      -64.635376      -15.981406
 H         -24.324387      -63.905262      -15.759240
