20
 generated by VMD
 C         -41.050613     -102.294342      -34.750492
 N         -41.480392     -101.951454      -35.806843
 H         -39.668976     -104.808250      -32.417629
 H         -41.046272     -102.503189      -33.702541
 C         -38.689304     -104.637360      -31.921104
 C         -37.667442     -103.973351      -32.830051
 C         -38.271549     -105.640266      -30.929598
 C         -36.338703     -103.567932      -32.074539
 C         -36.910805     -105.362274      -30.329227
 C         -35.907879     -104.865730      -31.403481
 H         -38.044136     -103.018242      -33.317234
 H         -37.449959     -104.600952      -33.675270
 H         -39.101818     -105.818192      -30.148760
 H         -38.131142     -106.598534      -31.395668
 H         -36.482441     -102.776726      -31.355440
 H         -35.738464     -103.153763      -32.848740
 H         -36.517040     -106.157494      -29.715546
 H         -37.280270     -104.536057      -29.651499
 H         -35.048512     -104.674545      -30.866568
 H         -35.612850     -105.678017      -32.126099
