20
 generated by VMD
 C         -14.315985      -45.477768       -6.003687
 N         -14.487980      -45.834293       -7.033298
 H         -15.320213      -44.183861       -9.067772
 H         -14.499683      -44.121563      -10.706059
 C         -15.465593      -44.263744      -10.169653
 C         -16.482065      -43.203133      -10.539816
 C         -15.838141      -45.732426      -10.456487
 C         -16.755018      -43.573166      -12.025455
 C         -16.282320      -46.007263      -11.908262
 C         -17.290594      -45.006664      -12.325218
 H         -16.081747      -42.203918      -10.475180
 H         -17.388020      -43.333691       -9.972021
 H         -14.916664      -46.288876      -10.185727
 H         -16.696945      -46.050491       -9.899264
 H         -15.826804      -43.371532      -12.602421
 H         -17.480404      -42.850853      -12.414909
 H         -16.619745      -47.039383      -12.033786
 H         -15.425191      -45.950165      -12.565898
 H         -17.561506      -45.234131      -13.392128
 H         -18.256792      -45.053818      -11.782755
