20
 generated by VMD
 C         -78.428879     -209.443542      -76.962044
 N         -78.359627     -209.108307      -78.092087
 H         -79.015091     -211.182434      -73.693642
 H         -78.497124     -209.753021      -75.850533
 C         -79.059311     -211.791580      -72.853035
 C         -77.772278     -212.165817      -72.169792
 C         -80.211617     -212.681656      -72.876328
 C         -78.211098     -212.294174      -70.642525
 C         -80.520042     -213.160477      -71.472496
 C         -79.260612     -213.314026      -70.600533
 H         -76.986710     -211.467987      -72.217171
 H         -77.378899     -213.069489      -72.643196
 H         -81.051727     -212.007355      -73.210464
 H         -80.138725     -213.517548      -73.549377
 H         -78.554329     -211.399017      -70.075760
 H         -77.255241     -212.607880      -70.144997
 H         -81.081116     -214.040710      -71.576370
 H         -81.067116     -212.356018      -71.036179
 H         -79.617432     -213.386429      -69.593933
 H         -78.845604     -214.340729      -70.896431
