20
 generated by VMD
 C         -19.961212      -51.658123      -10.241994
 N         -20.816986      -51.200138       -9.568377
 H         -17.759354      -49.062088      -10.357816
 H         -18.950724      -52.230740      -10.510105
 C         -17.196724      -49.076878      -11.250012
 C         -16.325016      -50.217796      -11.612661
 C         -17.376759      -47.920734      -12.216775
 C         -16.633825      -50.615299      -13.070918
 C         -17.378510      -48.164780      -13.740109
 C         -16.440886      -49.351952      -13.937443
 H         -16.486492      -51.059402      -11.008204
 H         -15.268195      -49.932690      -11.520368
 H         -18.375307      -47.506104      -11.927988
 H         -16.700148      -47.073189      -12.024761
 H         -17.618721      -50.951641      -13.209376
 H         -15.935399      -51.386433      -13.343060
 H         -16.894932      -47.309299      -14.224646
 H         -18.361216      -48.342239      -14.117084
 H         -16.529589      -49.595268      -14.982179
 H         -15.428358      -49.052010      -13.863955
