20
 generated by VMD
 C         -57.775471     -166.196548      -56.398979
 N         -58.241879     -166.961914      -55.717358
 H         -60.569614     -165.313461      -54.819962
 H         -57.245331     -165.621063      -57.092823
 C         -61.586475     -165.460251      -55.114700
 C         -61.729866     -166.750839      -55.898575
 C         -62.420307     -164.302277      -55.402328
 C         -63.245602     -167.048340      -56.032421
 C         -63.863594     -164.772949      -55.698479
 C         -64.091522     -165.997589      -56.520947
 H         -61.296406     -167.644897      -55.278248
 H         -61.489559     -166.669586      -56.891472
 H         -62.445805     -163.715179      -54.538921
 H         -61.900288     -163.666733      -56.177311
 H         -63.580212     -167.353348      -55.034420
 H         -63.541981     -167.934708      -56.530712
 H         -64.393539     -163.892609      -56.236637
 H         -64.291786     -164.955917      -54.747211
 H         -65.198280     -166.198212      -56.285984
 H         -63.957508     -165.788651      -57.643082
