20
 generated by VMD
 C         -68.444748     -195.044922      -65.339821
 N         -68.804497     -195.511322      -64.369278
 H         -71.253197     -194.604553      -67.345215
 H         -68.007790     -194.798660      -66.327721
 C         -72.118134     -193.953293      -67.076988
 C         -71.872139     -192.519562      -66.613434
 C         -73.413788     -194.193222      -67.789513
 C         -73.151413     -191.917328      -65.870453
 C         -74.558128     -193.811676      -66.749634
 C         -74.414856     -192.261597      -66.616287
 H         -71.544907     -191.925125      -67.398514
 H         -70.902611     -192.517883      -65.968414
 H         -73.360924     -193.660187      -68.692612
 H         -73.599144     -195.175751      -68.148903
 H         -72.901405     -190.822449      -65.705070
 H         -73.214806     -192.335114      -64.850258
 H         -74.469604     -194.324326      -65.800766
 H         -75.596336     -194.001205      -67.187012
 H         -74.489777     -191.781586      -67.589546
 H         -75.379028     -191.944672      -65.986305
