20
 generated by VMD
 C         -67.872360     -185.808075      -67.371666
 N         -68.750237     -186.524078      -67.676323
 H         -68.671188     -187.598480      -64.854767
 H         -67.064346     -185.119141      -66.966080
 C         -69.309349     -187.632431      -63.936100
 C         -68.797691     -186.946564      -62.660564
 C         -70.718277     -188.060806      -64.050842
 C         -69.633507     -187.145187      -61.399231
 C         -71.345016     -188.375092      -62.703583
 C         -71.126343     -187.282928      -61.669044
 H         -68.437035     -185.890594      -62.782963
 H         -67.801895     -187.417374      -62.361210
 H         -71.193764     -187.207489      -64.562790
 H         -70.851219     -188.947815      -64.704536
 H         -69.570259     -186.242264      -60.794601
 H         -69.214508     -188.035034      -60.830364
 H         -70.859764     -189.359268      -62.385960
 H         -72.457382     -188.521194      -62.719143
 H         -71.594948     -186.451904      -62.206779
 H         -71.452431     -187.503479      -60.683163
