20
 generated by VMD
 C         -60.749081     -155.471390      -54.727390
 N         -61.099102     -156.465500      -54.193340
 H         -59.127934     -155.181122      -51.982197
 H         -60.542133     -154.573395      -55.331146
 C         -58.128139     -155.294235      -51.566353
 C         -57.583557     -154.533783      -50.370983
 C         -57.254314     -155.996094      -52.506306
 C         -56.279327     -155.232605      -49.795254
 C         -56.092041     -156.685455      -51.837997
 C         -55.278831     -155.745895      -50.946705
 H         -58.349777     -154.391800      -49.587471
 H         -57.436947     -153.452026      -50.672699
 H         -57.663216     -156.672180      -53.235744
 H         -56.807861     -155.197403      -53.211155
 H         -56.710728     -156.105652      -49.277920
 H         -55.779743     -154.544586      -49.155113
 H         -55.369297     -157.064911      -52.495644
 H         -56.566360     -157.509018      -51.286510
 H         -54.408638     -156.359772      -50.530315
 H         -54.856861     -154.887192      -51.437008
