20
 generated by VMD
 C         -47.677570     -124.724419      -38.128963
 N         -47.330360     -125.664406      -38.699333
 H         -45.002262     -122.774841      -37.779736
 H         -47.800999     -123.866631      -37.512302
 C         -44.831787     -122.673103      -38.822849
 C         -43.783089     -123.352783      -39.520607
 C         -45.743641     -121.690796      -39.599003
 C         -44.257755     -123.919754      -40.809875
 C         -46.115570     -122.276634      -40.872093
 C         -44.907108     -122.776871      -41.646198
 H         -43.415447     -124.234459      -39.027596
 H         -42.875458     -122.628067      -39.648155
 H         -46.689297     -121.372246      -39.111118
 H         -45.172092     -120.794922      -39.724495
 H         -45.027103     -124.754448      -40.533573
 H         -43.204796     -124.303856      -41.270733
 H         -46.758545     -121.606552      -41.511635
 H         -46.504581     -123.305260      -40.757973
 H         -45.109562     -123.095879      -42.714977
 H         -44.202236     -121.915909      -41.702808
