20
 generated by VMD
 C          -1.878996      -13.079323        0.510115
 N          -1.559997      -13.580979        1.449289
 H          -3.432903      -15.985374        1.594856
 H          -4.132167      -15.784270        0.004434
 C          -4.355931      -16.099049        1.029424
 C          -5.410882      -15.096314        1.640947
 C          -4.869625      -17.475916        0.959516
 C          -6.729088      -15.189750        0.838608
 C          -6.152902      -17.522974        0.154860
 C          -7.283832      -16.603121        0.679765
 H          -4.945106      -14.116666        1.607564
 H          -5.591110      -15.399221        2.699078
 H          -4.202576      -18.088488        0.526899
 H          -5.072881      -17.828005        1.909057
 H          -6.593889      -14.890983       -0.172631
 H          -7.508512      -14.651701        1.306363
 H          -6.532863      -18.564766        0.156843
 H          -5.880308      -17.255348       -0.835456
 H          -8.073707      -16.555189       -0.089594
 H          -7.748825      -16.958361        1.612939
