20
 generated by VMD
 C         -19.893812      -50.860554      -10.341202
 N         -20.452568      -51.224270       -9.351688
 H         -17.550987      -48.905342      -10.151616
 H         -19.144005      -50.701782      -11.202909
 C         -17.235081      -49.067047      -11.233514
 C         -16.183764      -50.057026      -11.572419
 C         -17.445702      -47.843731      -12.099381
 C         -16.205708      -50.406601      -13.054692
 C         -17.677116      -48.258110      -13.504286
 C         -16.558243      -49.172024      -13.971666
 H         -16.347868      -50.976151      -10.989540
 H         -15.247073      -49.569874      -11.320843
 H         -18.182491      -47.160797      -11.649899
 H         -16.448006      -47.343529      -12.004592
 H         -16.920610      -51.187008      -13.181327
 H         -15.236174      -50.770752      -13.311065
 H         -17.745777      -47.356438      -14.200791
 H         -18.529949      -48.810768      -13.582637
 H         -16.834669      -49.474342      -14.964953
 H         -15.636794      -48.628185      -14.134624
