20
 generated by VMD
 C         -69.380676     -180.944870      -62.315735
 N         -70.181961     -180.083054      -62.259521
 H         -66.997353     -181.351212      -60.367661
 H         -68.656845     -181.711426      -62.249802
 C         -66.506371     -180.411224      -60.470917
 C         -65.008415     -180.431381      -60.549496
 C         -67.176819     -179.299911      -59.882153
 C         -64.408104     -179.154526      -61.188854
 C         -66.734566     -177.951141      -60.576427
 C         -65.096176     -177.863129      -60.714748
 H         -64.699829     -181.312057      -61.106739
 H         -64.603035     -180.588852      -59.512894
 H         -68.228790     -179.429306      -59.796146
 H         -66.785301     -179.133148      -58.801659
 H         -64.452934     -179.108047      -62.238167
 H         -63.344986     -179.125977      -61.019062
 H         -67.051460     -177.131378      -59.907791
 H         -67.214920     -177.714951      -61.513210
 H         -65.039963     -176.933945      -61.414078
 H         -64.756630     -177.364532      -59.796135
