20
 generated by VMD
 C         -19.996473      -50.200401       -9.998536
 N         -19.980772      -51.224018       -9.542786
 H         -16.628977      -48.522881       -9.997346
 H         -19.611929      -49.048180      -10.416331
 C         -16.952906      -48.813995      -11.040356
 C         -15.985104      -49.774536      -11.614717
 C         -17.626604      -47.838467      -11.940999
 C         -16.172318      -50.164600      -13.088202
 C         -17.780577      -48.432625      -13.347907
 C         -16.548128      -49.006382      -13.998217
 H         -16.003304      -50.708118      -11.047668
 H         -15.041865      -49.250816      -11.516013
 H         -18.629755      -47.700165      -11.556033
 H         -17.074768      -46.905224      -11.954179
 H         -17.056938      -50.791500      -13.038306
 H         -15.311915      -50.724308      -13.458488
 H         -18.207453      -47.585735      -13.996732
 H         -18.529810      -49.202415      -13.341975
 H         -16.620815      -49.343155      -15.014188
 H         -15.766880      -48.268936      -14.092320
