20
 generated by VMD
 C         -27.918417      -82.678947      -27.252598
 N         -27.187752      -83.386055      -26.677425
 H         -31.418783      -84.269814      -26.626638
 H         -28.680407      -81.903908      -27.648754
 C         -31.734150      -84.978012      -25.787655
 C         -31.435177      -84.848183      -24.281540
 C         -32.393906      -86.235832      -26.399960
 C         -32.449280      -85.549866      -23.452805
 C         -33.179493      -87.070442      -25.382795
 C         -32.661839      -86.946045      -23.914980
 H         -31.192764      -83.912933      -23.798971
 H         -30.575644      -85.518372      -24.276230
 H         -32.859135      -86.064499      -27.369793
 H         -31.481247      -86.810158      -26.686815
 H         -33.356117      -84.836830      -23.426933
 H         -32.117901      -85.698151      -22.423517
 H         -33.120949      -88.126907      -25.670282
 H         -34.251606      -86.827484      -25.425510
 H         -33.527611      -87.377426      -23.458498
 H         -31.872019      -87.738503      -23.722919
