20
 generated by VMD
 C         -11.473556      -27.172621       -1.200123
 N         -12.297278      -26.475388       -1.426360
 H         -10.450709      -26.002731       -3.877332
 H          -9.483277      -25.679619       -5.192985
 C          -9.417349      -26.072487       -4.196348
 C          -8.789505      -27.461494       -4.146235
 C          -8.671165      -25.101570       -3.294515
 C          -7.277311      -27.510479       -4.301313
 C          -7.159535      -25.196411       -3.285309
 C          -6.615474      -26.586302       -3.215583
 H          -9.189624      -28.038851       -4.945847
 H          -9.205093      -27.947224       -3.197572
 H          -8.906151      -24.117079       -3.654644
 H          -9.014040      -24.954224       -2.242732
 H          -6.947815      -27.193464       -5.260306
 H          -6.933571      -28.513002       -4.123003
 H          -6.836094      -24.642725       -2.377836
 H          -6.762221      -24.717403       -4.198728
 H          -5.543463      -26.579630       -3.419213
 H          -6.834644      -27.072090       -2.230590
