20
 generated by VMD
 C         -41.056271     -119.342796      -34.783852
 N         -40.073143     -119.080040      -35.398407
 H         -43.624718     -117.174385      -36.258430
 H         -41.889908     -119.396255      -34.123177
 C         -43.973759     -117.427330      -37.266827
 C         -43.042686     -117.749268      -38.392143
 C         -45.241138     -116.840950      -37.576019
 C         -43.731663     -118.441666      -39.588142
 C         -45.908558     -117.486389      -38.816826
 C         -45.044113     -117.721771      -40.007820
 H         -42.339558     -118.455643      -38.023140
 H         -42.352821     -116.925697      -38.542671
 H         -45.908218     -116.986557      -36.635185
 H         -45.148140     -115.744347      -37.662899
 H         -43.736855     -119.480247      -39.307194
 H         -43.078159     -118.408989      -40.519039
 H         -46.781437     -116.861702      -39.137215
 H         -46.450027     -118.373993      -38.443371
 H         -45.591873     -118.342331      -40.832951
 H         -44.819492     -116.732208      -40.480656
