20
 generated by VMD
 C         -49.483997     -127.546127      -39.457783
 N         -50.480343     -127.435997      -40.062592
 H         -47.045506     -127.084213      -42.544147
 H         -48.664734     -127.625130      -38.738609
 C         -46.254951     -126.579926      -42.044567
 C         -45.629951     -127.107864      -40.836906
 C         -46.564407     -125.125351      -42.050854
 C         -44.432117     -126.332756      -40.320568
 C         -45.429996     -124.241821      -41.601662
 C         -44.754326     -124.773804      -40.288383
 H         -45.487793     -128.137039      -41.201122
 H         -46.423191     -127.108887      -40.083927
 H         -47.024815     -124.725189      -42.957169
 H         -47.496925     -124.915375      -41.398804
 H         -43.567600     -126.525352      -40.939533
 H         -44.039726     -126.591911      -39.343433
 H         -45.815758     -123.317497      -41.401028
 H         -44.621876     -124.219048      -42.285995
 H         -43.816601     -124.291222      -39.985046
 H         -45.403156     -124.653275      -39.337826
