20
 generated by VMD
 C         -19.543673      -57.983868      -17.124052
 N         -19.244484      -58.554832      -18.079584
 H         -22.712412      -59.669018      -16.807625
 H         -19.689934      -57.588436      -16.190956
 C         -22.910509      -60.576111      -16.331495
 C         -23.941538      -61.526821      -16.733904
 C         -22.008322      -61.025558      -15.195404
 C         -23.432966      -62.961849      -16.736036
 C         -21.949627      -62.539963      -14.748118
 C         -23.048565      -63.440273      -15.357432
 H         -24.441696      -61.181416      -17.655029
 H         -24.718010      -61.503517      -15.932714
 H         -21.052332      -60.444103      -15.196532
 H         -22.425568      -60.573448      -14.249915
 H         -22.463890      -62.939201      -17.321302
 H         -24.172386      -63.667675      -17.193960
 H         -22.093494      -62.619240      -13.674414
 H         -20.957127      -62.959629      -14.855831
 H         -22.663406      -64.444328      -15.431745
 H         -24.004835      -63.474857      -14.723048
