20
 generated by VMD
 C         -38.288982      -98.657120      -27.848051
 N         -38.228683      -99.551208      -27.121458
 H         -37.367859      -98.219193      -30.534248
 H         -38.474106      -97.754509      -28.383978
 C         -36.462250      -97.535179      -30.741964
 C         -35.623886      -98.075020      -31.800146
 C         -35.674885      -96.931534      -29.483253
 C         -34.503788      -97.014130      -32.215824
 C         -34.335732      -96.132767      -29.882719
 C         -33.571865      -96.620178      -31.027514
 H         -36.205151      -98.228035      -32.731583
 H         -35.141373      -99.052162      -31.550587
 H         -36.356510      -96.242729      -28.950813
 H         -35.360474      -97.682526      -28.748827
 H         -34.969967      -96.082161      -32.555496
 H         -33.802055      -97.543884      -33.030529
 H         -33.658707      -96.067101      -28.967798
 H         -34.633884      -95.104263      -30.035137
 H         -32.846142      -95.952621      -31.374218
 H         -33.001835      -97.540710      -30.602880
