20
 generated by VMD
 C         -70.630188     -196.778946      -65.248802
 N         -69.839676     -197.503357      -65.661232
 H         -73.742653     -196.515259      -65.592888
 H         -71.336212     -196.239471      -64.667633
 C         -73.509682     -195.772339      -66.335007
 C         -72.986809     -194.386261      -66.114265
 C         -74.291710     -196.015900      -67.664246
 C         -72.532845     -193.710281      -67.463463
 C         -74.644760     -194.728638      -68.364937
 C         -73.490540     -193.841949      -68.651756
 H         -72.190201     -194.439148      -65.374146
 H         -73.691643     -193.699005      -65.591370
 H         -73.822762     -196.683685      -68.270538
 H         -75.239967     -196.480591      -67.490532
 H         -71.565323     -194.117264      -67.741882
 H         -72.337234     -192.640198      -67.292175
 H         -75.186852     -194.215271      -67.542603
 H         -75.239326     -194.787842      -69.258865
 H         -72.921181     -194.266693      -69.481079
 H         -73.654297     -192.835342      -69.170624
