20
 generated by VMD
 C         -31.712246      -78.792984      -26.423594
 N         -31.070959      -77.988754      -27.023106
 H         -28.823687      -80.993805      -25.134861
 H         -32.374207      -79.404625      -25.925224
 C         -28.905745      -80.955719      -24.099707
 C         -27.604862      -80.809753      -23.261154
 C         -30.009371      -81.939224      -23.663202
 C         -27.758089      -81.158180      -21.705404
 C         -30.130266      -82.201004      -22.147884
 C         -28.694473      -82.283340      -21.536760
 H         -26.959255      -79.907753      -23.433542
 H         -26.945015      -81.634506      -23.690281
 H         -30.917492      -81.594360      -24.117483
 H         -29.699846      -82.892036      -24.219326
 H         -28.183138      -80.353279      -21.208927
 H         -26.729767      -81.385643      -21.320585
 H         -30.742121      -83.180359      -22.058002
 H         -30.683346      -81.477654      -21.566147
 H         -28.941061      -82.320351      -20.456184
 H         -28.138386      -83.216858      -21.818249
