20
 generated by VMD
 C         -12.328218      -27.175344       -2.669395
 N         -13.226000      -27.673773       -2.260099
 H         -10.617919      -26.955807       -4.072363
 H          -9.419475      -26.260717       -5.214824
 C          -9.519238      -26.879656       -4.271788
 C          -9.020254      -28.357319       -4.438584
 C          -8.821165      -26.184912       -3.056638
 C          -7.453762      -28.389626       -4.638482
 C          -7.342097      -26.275368       -3.150387
 C          -6.798736      -27.658625       -3.442763
 H          -9.456426      -28.670097       -5.325141
 H          -9.193609      -29.104305       -3.596292
 H          -9.045065      -25.128973       -3.196504
 H          -9.275620      -26.609697       -2.129345
 H          -7.193021      -27.906599       -5.600230
 H          -7.135205      -29.430923       -4.634094
 H          -7.001429      -25.979975       -2.176060
 H          -6.996828      -25.486513       -3.797461
 H          -5.731072      -27.556379       -3.683681
 H          -6.755934      -28.292953       -2.520301
