20
 generated by VMD
 C         -68.449966     -185.270981      -67.024605
 N         -67.693893     -186.154068      -66.980225
 H         -69.778091     -184.866302      -64.554565
 H         -69.187866     -184.519485      -67.131401
 C         -69.668266     -185.194031      -63.515408
 C         -70.843765     -185.144043      -62.551994
 C         -68.371429     -185.785782      -63.102345
 C         -70.363480     -185.391815      -61.089275
 C         -68.228828     -186.434067      -61.725643
 C         -69.502350     -186.681931      -61.054977
 H         -71.719055     -185.737564      -62.783421
 H         -71.332451     -184.182831      -62.570770
 H         -68.202789     -186.715317      -63.751606
 H         -67.602814     -185.157288      -63.449551
 H         -71.227119     -185.289520      -60.440380
 H         -69.737282     -184.616486      -60.771244
 H         -67.544998     -185.888245      -61.098042
 H         -67.763138     -187.422928      -61.808147
 H         -70.190613     -187.501846      -61.281342
 H         -69.340904     -186.908295      -59.917057
