20
 generated by VMD
 C         -67.481926     -177.830719      -57.561420
 N         -67.444771     -178.774536      -56.869473
 H         -64.807129     -176.435623      -59.912563
 H         -67.505913     -176.902893      -58.171555
 C         -64.494736     -175.392532      -59.626129
 C         -65.629349     -174.463226      -59.573757
 C         -63.165428     -174.944107      -60.267414
 C         -65.275673     -173.055222      -59.472576
 C         -63.019382     -173.370590      -60.197918
 C         -64.312317     -172.560806      -60.490700
 H         -66.330971     -174.733047      -58.833279
 H         -66.164894     -174.515060      -60.568317
 H         -62.266872     -175.333588      -59.734013
 H         -63.055317     -175.292725      -61.323681
 H         -64.865669     -172.870956      -58.448441
 H         -66.189545     -172.451431      -59.643143
 H         -62.170864     -172.847900      -60.810612
 H         -62.727261     -173.307297      -59.198689
 H         -64.050095     -171.534454      -60.690216
 H         -64.664581     -172.960831      -61.503826
