20
 generated by VMD
 C         -32.286118      -95.076408      -25.518536
 N         -33.323288      -95.070396      -25.009329
 H         -33.961632      -94.601021      -27.929424
 H         -31.384350      -94.951439      -25.951813
 C         -34.299389      -93.905754      -28.663353
 C         -35.763287      -93.629723      -28.700336
 C         -33.362160      -93.480568      -29.775782
 C         -35.869587      -92.213165      -29.179867
 C         -33.664421      -92.067680      -30.161312
 C         -35.150299      -91.735474      -30.401419
 H         -36.295208      -93.778214      -27.673914
 H         -36.212376      -94.367989      -29.332544
 H         -32.302170      -93.532654      -29.412230
 H         -33.404716      -94.204590      -30.577501
 H         -35.481121      -91.711617      -28.311523
 H         -36.985130      -91.924759      -29.120270
 H         -33.207687      -91.888351      -31.147192
 H         -33.356369      -91.351273      -29.369604
 H         -35.364037      -90.667671      -30.646873
 H         -35.594574      -92.169388      -31.244629
