20
 generated by VMD
 C         -60.811596     -153.268417      -52.396347
 N         -60.934017     -153.326431      -51.188179
 H         -57.520069     -153.877670      -50.895844
 H         -60.668453     -153.365204      -53.474670
 C         -56.554935     -153.386902      -50.732964
 C         -55.770241     -153.760376      -49.550823
 C         -56.415569     -152.043320      -51.373207
 C         -54.328171     -153.298752      -49.839592
 C         -54.929359     -151.813766      -51.826294
 C         -54.217884     -151.900116      -50.430740
 H         -55.787434     -154.867874      -49.526035
 H         -55.962166     -153.219681      -48.654499
 H         -57.002983     -152.030334      -52.286148
 H         -56.847336     -151.214600      -50.774055
 H         -53.730541     -153.932220      -50.574913
 H         -53.684326     -153.404358      -48.948196
 H         -54.816288     -150.989975      -52.406906
 H         -54.587017     -152.688400      -52.352898
 H         -53.204391     -151.676086      -50.433914
 H         -54.537384     -151.233337      -49.566280
