20
 generated by VMD
 C         -41.112423     -119.275497      -34.725407
 N         -40.169270     -119.180855      -35.430237
 H         -43.423538     -117.349388      -36.391312
 H         -41.916222     -119.638420      -34.183788
 C         -43.911297     -117.513802      -37.314449
 C         -42.987560     -117.839859      -38.466465
 C         -45.316463     -116.919273      -37.590965
 C         -43.688622     -118.456108      -39.656918
 C         -46.062096     -117.459435      -38.787109
 C         -44.972221     -117.739975      -39.934177
 H         -41.975601     -118.266098      -38.150070
 H         -42.657417     -116.762909      -38.712315
 H         -45.978909     -117.003998      -36.767944
 H         -45.170486     -115.876648      -37.841766
 H         -43.865231     -119.564064      -39.404366
 H         -42.929329     -118.408867      -40.405994
 H         -46.664322     -116.689705      -39.206863
 H         -46.504311     -118.448341      -38.495644
 H         -45.507389     -118.278839      -40.661434
 H         -44.631813     -116.759308      -40.242687
