20
 generated by VMD
 C         -52.565277     -147.081711      -45.351662
 N         -53.602009     -147.381729      -44.848251
 H         -54.763538     -147.252457      -48.061134
 H         -51.567886     -146.843750      -45.789368
 C         -54.466412     -146.268890      -48.434647
 C         -53.352417     -146.243301      -49.368149
 C         -55.282330     -145.135132      -48.128204
 C         -53.451401     -145.047531      -50.382076
 C         -55.207676     -143.964996      -49.079102
 C         -53.784309     -143.776367      -49.555126
 H         -53.321198     -147.078186      -50.007450
 H         -52.368919     -146.151138      -48.840706
 H         -56.226109     -145.526123      -48.127926
 H         -54.920177     -144.652817      -47.206856
 H         -54.156906     -145.109695      -51.110764
 H         -52.510010     -145.010590      -50.820732
 H         -55.535591     -143.072556      -48.559181
 H         -55.913227     -144.083481      -50.021675
 H         -53.906223     -142.882370      -50.179291
 H         -53.072178     -143.635101      -48.685116
