20
 generated by VMD
 C         -59.814350     -152.071259      -49.836807
 N         -58.723846     -152.473877      -50.160801
 H         -56.581146     -151.081604      -48.473728
 H         -60.721001     -151.749191      -49.378731
 C         -55.763432     -150.642792      -49.091114
 C         -54.791756     -151.629456      -49.675671
 C         -55.333523     -149.162033      -49.165184
 C         -54.282093     -151.189178      -51.083698
 C         -54.837723     -148.698868      -50.622757
 C         -53.847107     -149.746750      -51.105835
 H         -55.434444     -152.514862      -49.876293
 H         -54.020962     -151.823883      -48.948509
 H         -56.032383     -148.483932      -48.753662
 H         -54.441433     -148.934769      -48.560780
 H         -55.013275     -151.442245      -51.887703
 H         -53.401340     -151.844894      -51.155296
 H         -54.335003     -147.812912      -50.614750
 H         -55.596218     -148.508591      -51.458809
 H         -53.373932     -149.458618      -52.046394
 H         -52.937359     -149.599289      -50.355774
