20
 generated by VMD
 C         -12.033307      -41.603203       -7.467024
 N         -11.609199      -40.770943       -6.886739
 H         -14.118091      -40.735264       -8.284548
 H         -15.301562      -40.173504       -9.488215
 C         -14.917915      -41.058140       -8.968683
 C         -15.988396      -41.788231       -8.202305
 C         -14.314168      -42.026329      -10.009984
 C         -17.023863      -42.162800       -9.228430
 C         -15.377158      -42.572796      -10.933577
 C         -16.494692      -43.213699      -10.189150
 H         -16.399872      -41.128887       -7.425842
 H         -15.643590      -42.635792       -7.641015
 H         -13.497766      -41.641068      -10.633870
 H         -13.866942      -42.896126       -9.495589
 H         -17.427828      -41.256733       -9.648018
 H         -17.886627      -42.611389       -8.703322
 H         -14.819425      -43.341267      -11.575418
 H         -15.751808      -41.762272      -11.565824
 H         -17.282211      -43.552422      -10.918668
 H         -16.147312      -44.030220       -9.540039
