20
 generated by VMD
 C         -15.205519      -46.719803       -6.161715
 N         -15.073708      -47.242786       -5.194846
 H         -16.033880      -45.950363       -9.598190
 H         -14.852290      -45.961143      -10.932520
 C         -15.898066      -45.801353      -10.656398
 C         -16.426035      -44.428658      -11.077747
 C         -16.729465      -46.830612      -11.430030
 C         -16.494228      -44.073090      -12.579206
 C         -16.745592      -46.543907      -12.932346
 C         -17.258619      -45.136559      -13.305052
 H         -15.783528      -43.665573      -10.581768
 H         -17.413534      -44.265190      -10.599916
 H         -16.505777      -47.876720      -11.225762
 H         -17.751028      -46.695240      -10.955155
 H         -15.490186      -43.901718      -13.004034
 H         -17.002815      -43.104057      -12.695943
 H         -17.358767      -47.232353      -13.404559
 H         -15.772903      -46.708019      -13.451405
 H         -17.245983      -44.876980      -14.326554
 H         -18.300470      -45.161095      -12.977709
