20
 generated by VMD
 C         -50.388271     -130.134796      -46.157143
 N         -50.894756     -130.161163      -45.125477
 H         -48.346436     -132.137833      -44.455406
 H         -50.107208     -130.384827      -47.155361
 C         -48.094288     -132.009781      -43.368675
 C         -48.322632     -133.251648      -42.646320
 C         -48.050308     -130.747116      -42.752346
 C         -47.724907     -133.153412      -41.204006
 C         -47.587467     -130.694763      -41.303856
 C         -48.191925     -131.908615      -40.497826
 H         -47.809837     -134.110641      -43.217949
 H         -49.414558     -133.482559      -42.652035
 H         -47.370594     -129.994492      -43.346073
 H         -49.082451     -130.331818      -42.795818
 H         -46.667252     -133.322754      -41.340496
 H         -48.030933     -134.062195      -40.745251
 H         -47.920120     -129.794388      -40.804737
 H         -46.456497     -130.726074      -41.105560
 H         -47.755184     -132.054169      -39.463005
 H         -49.253765     -131.783646      -40.537151
