20
 generated by VMD
 C         -68.590179     -193.644165      -64.695038
 N         -68.418983     -194.503708      -65.507904
 H         -70.976044     -193.202942      -67.776245
 H         -68.690453     -192.815842      -64.057999
 C         -71.737053     -192.873001      -67.100433
 C         -71.588043     -191.597717      -66.373978
 C         -73.059990     -193.597397      -67.190376
 C         -72.984039     -190.983170      -66.005661
 C         -74.017708     -193.391174      -65.947617
 C         -73.872574     -192.048203      -65.274582
 H         -71.019547     -190.878067      -67.032188
 H         -71.053703     -191.764954      -65.339081
 H         -73.612350     -193.210434      -68.059952
 H         -72.839706     -194.730057      -67.199562
 H         -73.510017     -190.898438      -66.999260
 H         -72.977341     -190.068939      -65.365952
 H         -73.826942     -194.240891      -65.267822
 H         -75.021515     -193.423431      -66.329041
 H         -74.811417     -191.632584      -65.190643
 H         -73.372803     -192.293839      -64.251022
