20
 generated by VMD
 C         -29.559631      -90.851112      -25.123215
 N         -28.972578      -91.869049      -25.058531
 H         -32.040569      -91.093582      -27.487900
 H         -30.081226      -89.855515      -25.326206
 C         -33.074276      -90.738777      -27.520535
 C         -34.316971      -91.563034      -27.508463
 C         -33.090786      -89.537621      -28.572517
 C         -35.559315      -90.724815      -27.397835
 C         -34.513126      -88.816277      -28.769451
 C         -35.616173      -89.744484      -28.654200
 H         -34.291718      -92.205429      -26.595547
 H         -34.399277      -92.379166      -28.347746
 H         -32.254261      -88.904022      -28.410675
 H         -32.783112      -89.992165      -29.511139
 H         -35.611538      -90.086502      -26.474548
 H         -36.484028      -91.204674      -27.505219
 H         -34.442410      -88.245255      -29.673557
 H         -34.498039      -88.089378      -27.961727
 H         -36.547527      -89.162476      -28.541338
 H         -35.931862      -90.273819      -29.585892
