20
 generated by VMD
 C         -60.815193     -153.312836      -52.395702
 N         -60.881081     -153.207657      -51.184879
 H         -57.613094     -153.808685      -50.598610
 H         -60.757874     -153.195694      -53.465683
 C         -56.620281     -153.402161      -50.714275
 C         -55.652691     -153.690521      -49.604671
 C         -56.487186     -152.056458      -51.411129
 C         -54.218479     -153.263199      -49.807552
 C         -55.033829     -151.822922      -51.665314
 C         -54.139458     -151.849884      -50.460609
 H         -55.640930     -154.748703      -49.371822
 H         -56.065731     -153.156464      -48.676422
 H         -57.156399     -151.964890      -52.299526
 H         -56.790386     -151.306381      -50.684093
 H         -53.716942     -154.008850      -50.385601
 H         -53.486042     -153.254623      -48.954506
 H         -54.974171     -150.671265      -51.972469
 H         -54.701851     -152.502121      -52.542622
 H         -53.028545     -151.531128      -50.748039
 H         -54.409977     -151.005127      -49.858601
