20
 generated by VMD
 C          -9.102649      -23.808960        2.483677
 N          -8.609497      -24.809879        2.639173
 H          -8.329442      -23.331829       -1.165832
 H          -9.081652      -22.609459       -2.467241
 C          -8.124342      -22.984423       -2.166718
 C          -7.644802      -24.109274       -3.003885
 C          -7.172523      -21.871325       -2.157050
 C          -7.387918      -23.567589       -4.443328
 C          -6.901915      -21.273663       -3.488637
 C          -6.496883      -22.337811       -4.445756
 H          -8.400301      -24.938782       -2.981366
 H          -6.615246      -24.449394       -2.719077
 H          -7.488157      -21.068117       -1.494418
 H          -6.269722      -22.272240       -1.697094
 H          -8.304183      -23.147100       -4.812368
 H          -6.883925      -24.339413       -5.065194
 H          -6.171155      -20.496525       -3.499410
 H          -7.859435      -20.854063       -3.800712
 H          -6.432974      -21.994221       -5.484397
 H          -5.409843      -22.582462       -4.198279
