20
 generated by VMD
 C         -40.536877     -106.202843      -37.074818
 N         -39.769604     -106.780632      -37.758789
 H         -38.683147     -107.787949      -34.231449
 H         -41.220623     -105.553596      -36.582500
 C         -39.140865     -108.717384      -33.971230
 C         -38.515854     -109.747734      -33.154160
 C         -40.485855     -108.843193      -34.507744
 C         -39.498615     -110.060104      -32.015686
 C         -41.431324     -109.196907      -33.385345
 C         -40.863167     -110.371582      -32.456886
 H         -37.442120     -109.529594      -32.853737
 H         -38.297070     -110.597839      -33.793465
 H         -40.773895     -107.906929      -34.938629
 H         -40.554176     -109.661034      -35.313747
 H         -39.421940     -109.141846      -31.355320
 H         -39.094669     -110.940186      -31.323690
 H         -42.443542     -109.582947      -33.718990
 H         -41.694370     -108.334824      -32.797348
 H         -41.596046     -110.555061      -31.573076
 H         -40.821121     -111.230339      -33.016064
