20
 generated by VMD
 C         -13.489256      -30.517380       -8.354488
 N         -13.601708      -30.117456       -9.409112
 H         -11.067255      -31.291628       -5.274310
 H         -11.114152      -31.846987       -3.698661
 C         -10.927081      -32.229420       -4.689075
 C          -9.517788      -32.831860       -4.814135
 C         -11.958453      -33.178715       -5.128354
 C          -9.316560      -34.118542       -4.028562
 C         -11.837835      -34.453876       -4.403041
 C         -10.426888      -35.104504       -4.355201
 H          -8.807647      -31.990602       -4.538324
 H          -9.286178      -32.913055       -5.849304
 H         -12.979800      -32.768475       -4.875992
 H         -12.020858      -33.306599       -6.248179
 H          -9.342083      -33.869045       -2.928476
 H          -8.277731      -34.568478       -4.137300
 H         -12.613032      -35.153854       -4.727894
 H         -12.180183      -34.268353       -3.352775
 H         -10.334199      -35.923065       -3.621480
 H         -10.264980      -35.600151       -5.347841
