20
 generated by VMD
 C          -1.050034      -10.115810        1.183960
 N          -1.844885       -9.759550        0.440215
 H          -3.210217      -12.191872        1.194644
 H          -4.059435      -12.124564        2.714987
 C          -3.819490      -12.763933        1.876086
 C          -3.145152      -14.016322        2.379040
 C          -5.166562      -13.113661        1.224130
 C          -3.993152      -14.801182        3.304201
 C          -6.127899      -14.083748        2.006145
 C          -5.296140      -15.234464        2.621820
 H          -2.176045      -13.746976        2.719953
 H          -2.902060      -14.573390        1.530240
 H          -5.740560      -12.204282        0.775900
 H          -4.886431      -13.776876        0.338756
 H          -4.275513      -14.229002        4.195872
 H          -3.361793      -15.686241        3.630188
 H          -6.907624      -14.484609        1.346821
 H          -6.646980      -13.518520        2.761116
 H          -5.914726      -15.658193        3.431149
 H          -5.100892      -16.058254        1.847304
