20
 generated by VMD
 C         -40.450668     -118.786865      -35.450478
 N         -39.520092     -118.222191      -34.991108
 H         -43.346550     -116.689278      -36.134224
 H         -41.206795     -119.402565      -35.812195
 C         -43.849586     -116.827477      -37.083179
 C         -42.942940     -117.358025      -38.160507
 C         -45.207275     -116.305977      -37.399529
 C         -43.751480     -118.235970      -39.135418
 C         -45.934666     -117.055550      -38.474842
 C         -44.950260     -117.436806      -39.691284
 H         -42.055321     -117.837227      -37.822887
 H         -42.525238     -116.652336      -38.819569
 H         -45.731625     -116.424347      -36.465355
 H         -45.053753     -115.129448      -37.494419
 H         -44.280495     -119.117233      -38.668327
 H         -43.152279     -118.576988      -39.984821
 H         -46.726234     -116.397858      -38.795258
 H         -46.262135     -118.054398      -37.929508
 H         -45.580814     -117.923836      -40.422470
 H         -44.689022     -116.392746      -39.988625
