20
 generated by VMD
 C         -47.957279     -134.452591      -47.205956
 N         -48.014065     -133.807693      -48.236027
 H         -49.803833     -134.353516      -44.468582
 H         -47.884369     -135.088913      -46.315605
 C         -50.246727     -135.193756      -44.008499
 C         -50.595207     -136.342773      -44.876511
 C         -51.227402     -135.009857      -42.786736
 C         -50.805870     -137.631226      -44.055817
 C         -51.310963     -136.254562      -41.973259
 C         -51.771431     -137.528809      -42.870228
 H         -49.868034     -136.359604      -45.615211
 H         -51.504379     -135.943192      -45.395988
 H         -50.670895     -134.375061      -42.091496
 H         -52.160400     -134.544891      -43.081612
 H         -49.891975     -138.119476      -43.695053
 H         -51.208591     -138.283951      -44.863491
 H         -52.047604     -136.134399      -41.162807
 H         -50.303223     -136.524582      -41.494888
 H         -51.596584     -138.403809      -42.200264
 H         -52.698360     -137.334686      -43.263062
