20
 generated by VMD
 C         -25.169790      -70.983994      -16.962837
 N         -25.257448      -70.931000      -15.784868
 H         -24.069777      -68.881142      -18.519247
 H         -24.867136      -71.071800      -17.948092
 C         -24.501730      -68.918999      -19.508579
 C         -23.870562      -69.724777      -20.576679
 C         -25.862125      -68.233299      -19.721233
 C         -24.826080      -70.602737      -21.261227
 C         -26.863611      -69.291901      -20.523489
 C         -26.126123      -69.756577      -21.771170
 H         -22.971373      -70.282181      -20.114054
 H         -23.450317      -69.110435      -21.510298
 H         -26.431021      -67.840767      -18.856085
 H         -25.614832      -67.358284      -20.382866
 H         -25.226252      -71.424103      -20.594561
 H         -24.313869      -70.978638      -22.142344
 H         -27.852335      -68.779099      -20.655056
 H         -27.128323      -70.183495      -19.885237
 H         -26.700352      -70.449211      -22.370094
 H         -25.807379      -69.045677      -22.494005
