20
 generated by VMD
 C         -40.390656     -100.236366      -30.212467
 N         -41.461067     -100.540543      -29.952759
 H         -37.142696     -101.403236      -30.517622
 H         -39.422482      -99.774437      -30.533850
 C         -36.566380     -100.592331      -30.867214
 C         -36.201675     -100.282478      -32.373344
 C         -35.348412     -100.476112      -29.847626
 C         -35.415070      -98.895340      -32.335117
 C         -34.414410      -99.153587      -30.084373
 C         -34.104782      -99.081093      -31.579100
 H         -37.000511     -100.087891      -33.067627
 H         -35.594906     -101.056679      -32.809998
 H         -35.715382     -100.529541      -28.835945
 H         -34.690815     -101.352722      -29.976080
 H         -36.198860      -98.206429      -31.827972
 H         -35.164875      -98.556824      -33.333679
 H         -33.548412      -99.113770      -29.465366
 H         -35.040886      -98.268684      -29.678360
 H         -33.338902      -98.216286      -31.685366
 H         -33.486893      -99.882729      -31.937759
