20
 generated by VMD
 C         -60.204567     -170.973511      -55.287514
 N         -59.272587     -171.690903      -55.113209
 H         -63.198444     -170.720596      -56.904179
 H         -61.048580     -170.271713      -55.374916
 C         -63.385860     -169.651581      -56.767811
 C         -62.412445     -168.584106      -57.508293
 C         -64.741013     -168.971512      -56.570255
 C         -63.077457     -167.940445      -58.788986
 C         -65.271652     -168.302094      -57.887516
 C         -64.321381     -167.263779      -58.423038
 H         -61.418888     -169.005112      -57.819809
 H         -62.130817     -167.670151      -56.867359
 H         -65.442413     -169.716187      -56.318714
 H         -64.810760     -168.151794      -55.839420
 H         -63.240322     -168.812607      -59.420795
 H         -62.417259     -167.234482      -59.215481
 H         -66.292015     -167.756821      -57.681236
 H         -65.481865     -169.165878      -58.609913
 H         -64.755753     -166.753052      -59.311939
 H         -64.278900     -166.469955      -57.655186
