20
 generated by VMD
 C         -67.207817     -191.549545      -66.218750
 N         -67.209938     -191.047394      -67.233665
 H         -70.290466     -190.130127      -66.390388
 H         -67.208298     -192.275696      -65.356956
 C         -71.019409     -190.132568      -65.621758
 C         -72.059975     -191.231781      -65.538902
 C         -70.989433     -189.119141      -64.543060
 C         -73.374901     -190.791519      -64.943634
 C         -72.155586     -189.154907      -63.459724
 C         -73.040077     -190.392334      -63.467678
 H         -71.751236     -192.048370      -64.985695
 H         -72.210220     -191.671936      -66.519562
 H         -70.018181     -189.008865      -64.104477
 H         -70.998062     -188.100052      -65.000847
 H         -74.048531     -191.638123      -65.040115
 H         -73.807846     -189.945679      -65.540047
 H         -72.733360     -188.232849      -63.684826
 H         -71.615501     -189.011719      -62.562832
 H         -72.590919     -191.199631      -62.976776
 H         -73.847763     -190.093002      -62.688347
