20
 generated by VMD
 C         -12.906551      -28.459665       -5.024952
 N         -12.924113      -27.552858       -5.655524
 H         -10.964865      -30.885639       -2.930349
 H         -11.198712      -29.498449       -3.956290
 C         -10.435496      -30.214697       -3.519209
 C          -9.663202      -30.870140       -4.683008
 C          -9.565749      -29.509256       -2.524126
 C          -8.739768      -29.836718       -5.303423
 C          -8.473741      -28.661615       -3.168612
 C          -7.757533      -29.316341       -4.306564
 H         -10.317122      -31.276806       -5.500048
 H          -9.149904      -31.700535       -4.326271
 H         -10.195345      -28.860268       -1.874034
 H          -9.105226      -30.248966       -1.808444
 H          -9.278432      -28.975540       -5.593459
 H          -8.279172      -30.194380       -6.195094
 H          -7.817193      -28.247322       -2.339210
 H          -9.021258      -27.794445       -3.472865
 H          -7.168597      -28.581963       -4.855165
 H          -7.142916      -30.209646       -3.935433
