20
 generated by VMD
 C         -59.738598     -157.253708      -56.931366
 N         -60.871647     -156.921707      -56.966038
 H         -59.901680     -157.196915      -53.188519
 H         -58.711384     -157.639664      -57.093807
 C         -59.215244     -157.777756      -52.435024
 C         -57.896862     -157.200317      -51.990139
 C         -59.330135     -159.301590      -52.488575
 C         -57.314926     -158.002625      -50.752468
 C         -58.651096     -160.123413      -51.328960
 C         -57.264927     -159.494919      -51.002800
 H         -57.933758     -156.135117      -51.837608
 H         -57.397331     -157.332764      -52.882095
 H         -60.334873     -159.638489      -52.464142
 H         -58.872547     -159.584854      -53.453030
 H         -57.840492     -157.852554      -49.899132
 H         -56.296181     -157.605850      -50.452171
 H         -58.555828     -161.163025      -51.696548
 H         -59.386089     -160.131653      -50.519360
 H         -56.790844     -160.013428      -50.206905
 H         -56.590229     -159.597458      -51.890945
