20
 generated by VMD
 C         -56.679562     -150.103394      -47.663937
 N         -57.673912     -150.405624      -48.103783
 H         -53.456238     -148.276627      -47.428764
 H         -55.760040     -149.851959      -47.218178
 C         -53.648060     -147.999588      -48.422848
 C         -53.169849     -148.717178      -49.587059
 C         -54.536880     -146.827316      -48.570717
 C         -54.089649     -148.881866      -50.796513
 C         -55.619904     -146.986343      -49.634293
 C         -54.949890     -147.562286      -50.989685
 H         -52.721912     -149.684906      -49.348843
 H         -52.248386     -148.176819      -49.911213
 H         -55.065254     -146.624939      -47.606075
 H         -53.911324     -145.981949      -48.697147
 H         -54.686855     -149.816650      -50.772121
 H         -53.585041     -149.025238      -51.754677
 H         -56.020699     -145.884995      -49.766808
 H         -56.446304     -147.597580      -49.300133
 H         -55.754879     -147.748779      -51.757812
 H         -54.314289     -146.807022      -51.477051
