20
 generated by VMD
 C         -49.501427     -127.680115      -39.934597
 N         -50.482117     -127.592697      -40.530930
 H         -47.470264     -127.153481      -42.018238
 H         -48.770798     -127.768959      -39.171360
 C         -46.706867     -126.645226      -41.505001
 C         -45.751270     -127.216110      -40.587421
 C         -46.709797     -125.174522      -41.847004
 C         -44.389362     -126.523323      -40.504574
 C         -45.343021     -124.575645      -41.773914
 C         -44.684036     -125.021133      -40.409824
 H         -45.764320     -128.290588      -40.817474
 H         -46.176018     -127.202881      -39.592381
 H         -47.051926     -125.115623      -42.904545
 H         -47.350239     -124.677139      -41.004814
 H         -43.921356     -126.740669      -41.496647
 H         -43.741535     -126.771645      -39.660362
 H         -45.607025     -123.546761      -41.772476
 H         -44.605984     -124.742569      -42.615768
 H         -43.779724     -124.443054      -40.241146
 H         -45.443394     -124.806465      -39.552002
