20
 generated by VMD
 C         -39.705723     -100.374077      -30.684458
 N         -40.558575     -100.238335      -31.450392
 H         -37.199543     -102.743858      -30.828955
 H         -38.916958     -100.621239      -29.936897
 C         -36.685482     -101.707878      -30.898273
 C         -36.684647     -101.098083      -32.246288
 C         -35.421207     -101.409424      -30.098475
 C         -36.291439      -99.594704      -32.132050
 C         -35.143982      -99.988754      -30.052608
 C         -35.026909      -99.368408      -31.449938
 H         -37.690208     -101.248940      -32.656635
 H         -36.038261     -101.796654      -32.764561
 H         -35.682686     -101.795700      -29.151772
 H         -34.557899     -101.922241      -30.607830
 H         -37.119221      -98.969185      -31.771393
 H         -36.191254      -99.295860      -33.144962
 H         -34.140228      -99.832893      -29.632500
 H         -35.902222      -99.398087      -29.454960
 H         -34.925579      -98.268471      -31.420271
 H         -34.161415      -99.816299      -31.977695
