20
 generated by VMD
 C         -69.771317     -183.246628      -65.655106
 N         -70.720612     -182.594421      -65.898094
 H         -68.116936     -184.077209      -62.994698
 H         -68.885612     -183.863480      -65.434647
 C         -67.804504     -183.368668      -62.223915
 C         -67.692604     -184.096954      -60.840691
 C         -67.353233     -181.902298      -62.360058
 C         -66.939552     -183.329941      -59.712044
 C         -66.655418     -181.216934      -61.226429
 C         -67.174377     -181.820511      -59.881634
 H         -67.373055     -185.201416      -60.863686
 H         -68.866096     -184.238358      -60.494785
 H         -66.526283     -181.913574      -63.189457
 H         -68.233261     -181.495529      -62.728188
 H         -65.956413     -183.583908      -59.799610
 H         -67.154129     -183.688065      -58.730228
 H         -66.875000     -180.150940      -61.089825
 H         -65.561028     -181.407425      -61.364658
 H         -66.597626     -181.311035      -59.022614
 H         -68.173889     -181.518143      -59.600983
