20
 generated by VMD
 C         -56.335251     -149.802200      -46.473827
 N         -56.753510     -150.589142      -45.677143
 H         -53.250282     -147.645996      -47.600109
 H         -55.959423     -149.012268      -47.087727
 C         -53.660030     -147.383682      -48.610867
 C         -52.982098     -147.710037      -49.901993
 C         -54.677467     -146.309250      -48.541565
 C         -53.831429     -147.512939      -51.048077
 C         -55.263813     -145.847519      -49.922775
 C         -54.448074     -146.135956      -51.139629
 H         -52.565563     -148.803772      -49.974155
 H         -52.076260     -147.215149      -49.949814
 H         -55.375313     -146.646271      -47.709263
 H         -54.268715     -145.443863      -48.040508
 H         -54.729523     -148.145081      -51.036449
 H         -53.368622     -147.733917      -52.058990
 H         -55.360226     -144.764404      -49.780220
 H         -56.294537     -146.276169      -50.089546
 H         -55.171909     -146.147141      -51.967884
 H         -53.756786     -145.350433      -51.401688
