20
 generated by VMD
 C         -39.970230      -99.460266      -28.704218
 N         -39.191177     -100.062744      -28.089819
 H         -37.442867      -99.012276      -30.480797
 H         -40.747253      -99.055923      -29.338066
 C         -36.494644      -98.431824      -30.768936
 C         -35.875347      -98.762894      -32.042881
 C         -35.467449      -98.103035      -29.619501
 C         -34.538502      -97.901146      -32.414742
 C         -34.243855      -97.203697      -29.963642
 C         -33.632690      -97.708122      -31.188030
 H         -36.575867      -98.499062      -32.866085
 H         -35.726452      -99.869186      -32.181007
 H         -35.952072      -97.806145      -28.645300
 H         -34.918896      -99.013466      -29.317076
 H         -34.889793      -96.913040      -32.791534
 H         -34.109341      -98.330582      -33.380562
 H         -33.598404      -97.275795      -29.059134
 H         -34.541233      -96.215019      -30.218979
 H         -32.808849      -96.953880      -31.363264
 H         -33.174084      -98.667137      -31.077908
