20
 generated by VMD
 C         -77.958191     -203.277390      -69.595604
 N         -78.481804     -204.202744      -69.114265
 H         -75.609871     -202.158234      -67.558823
 H         -77.407677     -202.423416      -70.028717
 C         -74.942368     -201.651886      -68.244705
 C         -74.902779     -200.192551      -68.550041
 C         -73.820450     -202.496552      -68.818344
 C         -74.819374     -199.855408      -70.082954
 C         -72.972206     -201.671143      -69.843559
 C         -73.965927     -200.993317      -70.773613
 H         -74.061333     -199.788345      -67.954155
 H         -75.764091     -199.684647      -68.194382
 H         -73.143410     -202.822800      -68.027267
 H         -74.238335     -203.476913      -69.278854
 H         -74.307564     -198.944656      -70.345299
 H         -75.806412     -199.853577      -70.636375
 H         -72.234550     -202.281830      -70.359909
 H         -72.407204     -200.901566      -69.346382
 H         -73.429497     -200.529312      -71.652046
 H         -74.635025     -201.644363      -71.219139
