20
 generated by VMD
 C         -62.528576     -172.269806      -55.035378
 N         -61.642033     -172.953522      -55.302738
 H         -61.606689     -170.907547      -58.629097
 H         -63.432579     -171.703491      -54.777985
 C         -62.533566     -170.358795      -58.441929
 C         -62.323231     -168.910263      -58.014729
 C         -63.804100     -171.151520      -58.332222
 C         -63.540459     -168.040909      -58.253105
 C         -65.047844     -170.227936      -58.630001
 C         -64.916237     -168.830750      -58.025578
 H         -61.544910     -168.464554      -58.574253
 H         -61.956249     -168.920547      -56.914242
 H         -63.747784     -171.906662      -59.094421
 H         -63.730133     -171.675217      -57.363605
 H         -63.628483     -167.672287      -59.282032
 H         -63.540436     -167.245697      -57.561878
 H         -65.898056     -170.725540      -58.125965
 H         -65.201538     -170.241501      -59.778423
 H         -65.759926     -168.289963      -58.383602
 H         -65.025536     -168.781998      -56.885822
