20
 generated by VMD
 C         -38.490036     -109.402130      -36.422440
 N         -37.449505     -108.893341      -36.267918
 H         -42.029732     -110.050850      -36.710316
 H         -39.404522     -109.880814      -36.519825
 C         -42.222801     -110.717712      -35.875996
 C         -41.713055     -112.140221      -35.915810
 C         -42.727810     -110.399307      -34.461231
 C         -40.813358     -112.607254      -34.821934
 C         -41.712288     -110.682014      -33.440926
 C         -41.535213     -112.176430      -33.492722
 H         -41.240612     -112.228638      -36.893608
 H         -42.578644     -112.730194      -36.029812
 H         -42.854546     -109.371895      -34.475956
 H         -43.684090     -110.906204      -34.328224
 H         -39.758705     -112.133354      -34.918423
 H         -40.551350     -113.671799      -34.754063
 H         -42.208290     -110.472740      -32.562519
 H         -40.820328     -110.142220      -33.459549
 H         -40.920799     -112.611206      -32.641556
 H         -42.521168     -112.701149      -33.579659
