20
 generated by VMD
 C         -11.049314      -38.665482       -7.118045
 N         -11.926880      -37.971081       -7.130703
 H         -12.673980      -41.694439       -9.002977
 H         -13.496978      -40.444916       -8.048743
 C         -13.629654      -41.236603       -8.822897
 C         -14.481901      -42.306087       -8.016289
 C         -14.362498      -40.835239      -10.113246
 C         -15.945979      -41.913887       -7.834445
 C         -15.687573      -40.204044       -9.788424
 C         -16.615080      -41.280479       -9.102261
 H         -13.989140      -42.442322       -7.087796
 H         -14.379966      -43.234016       -8.570541
 H         -13.725803      -40.208378      -10.651556
 H         -14.491993      -41.760300      -10.692977
 H         -16.022654      -41.226189       -6.972000
 H         -16.518732      -42.759514       -7.528601
 H         -16.289810      -39.895821      -10.713108
 H         -15.568332      -39.335087       -9.202113
 H         -17.646423      -40.900146       -8.926467
 H         -16.715786      -42.072170       -9.900479
