20
 generated by VMD
 C         -70.152977     -181.375443      -62.729744
 N         -71.071510     -180.750671      -63.166840
 H         -67.243286     -181.663696      -61.033215
 H         -69.369522     -181.947311      -62.295822
 C         -66.656387     -180.870651      -60.662094
 C         -65.161453     -181.106903      -60.486233
 C         -67.297981     -179.530991      -60.557899
 C         -64.318810     -179.885498      -60.693474
 C         -66.435158     -178.420883      -61.006523
 C         -65.052559     -178.546768      -60.282314
 H         -64.774117     -182.005173      -61.082993
 H         -65.115036     -181.578430      -59.394657
 H         -68.192436     -179.390091      -61.168339
 H         -67.602425     -179.249985      -59.536613
 H         -64.088318     -179.645920      -61.745544
 H         -63.407585     -180.046692      -60.146046
 H         -66.877495     -177.389999      -60.891472
 H         -66.358078     -178.476974      -62.119877
 H         -64.506035     -177.561890      -60.452328
 H         -65.398224     -178.508286      -59.216980
