20
 generated by VMD
 C         -41.877636     -101.968658      -33.700298
 N         -40.787041     -101.874084      -34.009262
 H         -39.093376     -103.834503      -32.661636
 H         -42.882591     -101.809769      -33.562275
 C         -38.134533     -103.776360      -32.263535
 C         -37.067223     -103.479820      -33.176086
 C         -37.897285     -104.428459      -30.869057
 C         -35.792484     -103.034180      -32.402233
 C         -36.811939     -103.680244      -30.135252
 C         -35.566479     -103.828575      -31.060471
 H         -37.585728     -102.703918      -33.738110
 H         -36.849998     -104.322540      -33.767551
 H         -38.863380     -104.589676      -30.254507
 H         -37.539669     -105.364891      -31.149767
 H         -35.994930     -101.956451      -32.141460
 H         -34.865685     -103.080109      -32.958878
 H         -36.599258     -104.135017      -29.227575
 H         -37.143345     -102.575623      -29.925095
 H         -34.690117     -103.587631      -30.518354
 H         -35.340260     -104.872086      -31.418716
