20
 generated by VMD
 C         -40.052361     -104.796837      -36.128033
 N         -39.474651     -104.397308      -37.066231
 H         -39.868023     -108.471909      -35.346096
 H         -40.802162     -105.278671      -35.461609
 C         -39.823902     -108.319756      -34.274067
 C         -38.833004     -107.343384      -33.716164
 C         -40.272099     -109.514984      -33.470428
 C         -39.070766     -107.074142      -32.284592
 C         -40.059242     -109.455154      -31.956623
 C         -38.847679     -108.552101      -31.525932
 H         -38.804565     -106.397842      -34.249687
 H         -37.865562     -107.623749      -33.906933
 H         -41.346130     -109.764496      -33.711479
 H         -39.733452     -110.386070      -33.761421
 H         -40.053429     -106.640892      -32.083878
 H         -38.264019     -106.394386      -31.909763
 H         -39.641720     -110.405121      -31.669956
 H         -40.985558     -109.187866      -31.442549
 H         -38.922791     -108.464363      -30.306028
 H         -37.968971     -109.056923      -31.819551
