20
 generated by VMD
 C         -68.984222     -180.085632      -62.222992
 N         -69.712601     -181.001465      -62.272945
 H         -66.895180     -180.634232      -59.210682
 H         -68.381508     -179.143677      -62.202675
 C         -66.339188     -179.721420      -59.601387
 C         -65.505302     -179.974442      -60.902885
 C         -66.063408     -178.419693      -58.928421
 C         -65.242760     -178.709839      -61.713184
 C         -66.163048     -177.214096      -59.871441
 C         -65.052155     -177.380630      -60.925362
 H         -65.994095     -180.719223      -61.542805
 H         -64.542862     -180.345276      -60.519909
 H         -66.759750     -178.150421      -58.190998
 H         -65.082726     -178.471390      -58.377975
 H         -66.065285     -178.637512      -62.384605
 H         -64.492012     -178.907761      -62.478645
 H         -65.985413     -176.244110      -59.341213
 H         -67.174858     -177.101593      -60.229946
 H         -65.381645     -176.578903      -61.763416
 H         -64.010460     -177.063965      -60.534172
