20
 generated by VMD
 C         -69.372459     -180.362839      -59.961674
 N         -68.934799     -181.343369      -60.454250
 H         -67.457054     -176.989243      -59.601334
 H         -69.811935     -179.470749      -59.587116
 C         -66.344109     -177.018387      -59.928802
 C         -65.986275     -176.956177      -61.354408
 C         -65.265877     -176.950867      -58.948307
 C         -64.948090     -175.937439      -61.520935
 C         -64.108963     -176.053589      -59.169521
 C         -63.677753     -176.159286      -60.651573
 H         -66.832184     -176.590714      -61.918499
 H         -65.565582     -177.962250      -61.666805
 H         -65.652138     -176.576874      -58.037022
 H         -64.844620     -177.978271      -58.684250
 H         -65.264732     -174.870850      -61.358196
 H         -64.655624     -176.026443      -62.663624
 H         -63.391914     -175.938080      -58.320686
 H         -64.476707     -175.024063      -59.202934
 H         -62.969620     -175.391846      -60.753460
 H         -63.230415     -177.189026      -60.780727
