20
 generated by VMD
 C         -60.333813     -170.521912      -55.141880
 N         -59.204926     -170.774750      -55.349758
 H         -63.235889     -170.699860      -56.615349
 H         -61.393753     -170.211929      -55.054878
 C         -63.358067     -169.627853      -56.817135
 C         -62.329929     -168.825806      -57.765991
 C         -64.535393     -168.815491      -56.347134
 C         -63.023335     -167.948334      -58.772007
 C         -65.190430     -167.869171      -57.482021
 C         -64.052391     -167.122406      -58.039299
 H         -61.675251     -169.590668      -58.167389
 H         -61.625278     -168.174057      -57.084309
 H         -65.281540     -169.456223      -55.957432
 H         -64.143593     -168.201706      -55.544636
 H         -63.538914     -168.568939      -59.557072
 H         -62.498707     -167.141144      -59.259743
 H         -65.882240     -167.157562      -56.999630
 H         -65.660469     -168.384781      -58.279030
 H         -64.467049     -166.248138      -58.645252
 H         -63.471313     -166.556503      -57.293575
