20
 generated by VMD
 C         -22.798510      -52.406590      -12.100041
 N         -23.189640      -52.501926      -10.933158
 H         -20.036133      -52.914570      -13.918234
 H         -22.444475      -52.313816      -12.998064
 C         -18.956829      -52.859798      -13.863730
 C         -18.113100      -52.029884      -14.740821
 C         -18.282150      -53.888626      -13.059307
 C         -16.599535      -52.213612      -14.537324
 C         -17.002890      -53.293652      -12.298574
 C         -16.151072      -52.279453      -13.049054
 H         -18.312435      -50.978363      -14.772519
 H         -18.409157      -52.381271      -15.696511
 H         -19.015520      -54.262367      -12.335774
 H         -17.974756      -54.762867      -13.652110
 H         -15.996768      -51.427696      -15.066287
 H         -16.304289      -53.176353      -15.081354
 H         -16.420549      -54.074127      -11.886466
 H         -17.357733      -52.827282      -11.335662
 H         -16.140467      -51.301369      -12.583827
 H         -15.083563      -52.527390      -13.076489
