20
 generated by VMD
 C         -13.485677      -30.678192       -8.341436
 N         -13.373912      -30.065504       -9.249806
 H         -10.997590      -31.589767       -5.822354
 H         -11.174377      -31.965313       -4.050701
 C         -10.986409      -32.393337       -5.068775
 C          -9.594187      -32.879185       -4.899750
 C         -12.083465      -33.489853       -5.292373
 C          -9.520417      -34.042824       -3.987491
 C         -11.894872      -34.645157       -4.317882
 C         -10.487881      -35.200302       -4.325947
 H          -9.050222      -32.060719       -4.535614
 H          -9.216267      -33.109024       -5.934387
 H         -13.063305      -33.029316       -5.302798
 H         -11.851709      -33.846951       -6.289471
 H          -9.703197      -33.740131       -2.980246
 H          -8.530007      -34.411686       -3.948621
 H         -12.597298      -35.487961       -4.609977
 H         -12.132879      -34.384251       -3.324804
 H         -10.295628      -36.001808       -3.577738
 H         -10.322480      -35.525761       -5.324069
