20
 generated by VMD
 C         -61.054031     -155.019241      -53.347633
 N         -61.195007     -154.477722      -52.294323
 H         -57.991451     -154.209534      -52.707081
 H         -60.780666     -155.527191      -54.298862
 C         -57.216179     -154.302002      -51.955101
 C         -57.481850     -154.171204      -50.462662
 C         -55.808422     -153.979813      -52.421257
 C         -56.222569     -154.566254      -49.665943
 C         -54.616287     -154.258713      -51.572704
 C         -54.846733     -153.917206      -50.153439
 H         -58.292282     -154.802094      -50.064602
 H         -57.880962     -153.111191      -50.361740
 H         -55.674213     -154.179382      -53.509296
 H         -55.884754     -152.881378      -52.471661
 H         -56.147385     -155.739365      -49.607792
 H         -56.089458     -154.245148      -48.626179
 H         -53.779587     -153.620590      -51.903786
 H         -54.295124     -155.337173      -51.697876
 H         -54.064342     -154.171585      -49.536987
 H         -54.860294     -152.781479      -50.109550
