20
 generated by VMD
 C         -68.763023     -184.674210      -65.950455
 N         -69.594528     -185.477448      -66.136032
 H         -69.486916     -183.050629      -63.852406
 H         -68.003120     -183.913589      -65.670563
 C         -69.220528     -183.673004      -63.000046
 C         -69.874451     -184.900513      -62.617306
 C         -67.896393     -183.340622      -62.365540
 C         -69.010452     -185.885925      -61.759739
 C         -67.290810     -184.100510      -61.218441
 C         -68.262123     -185.047333      -60.570724
 H         -70.321777     -185.489883      -63.440758
 H         -70.725418     -184.650146      -62.025219
 H         -67.144897     -183.184341      -63.116184
 H         -68.204269     -182.380127      -62.040691
 H         -68.197571     -186.249405      -62.470753
 H         -69.549065     -186.772156      -61.292835
 H         -67.026329     -183.462357      -60.400562
 H         -66.333412     -184.559174      -61.596657
 H         -67.745331     -185.757751      -59.958538
 H         -68.976898     -184.680023      -59.836758
