20
 generated by VMD
 C         -38.271961     -108.044289      -37.333488
 N         -38.868111     -107.387703      -38.046856
 H         -40.565128     -108.237831      -34.905960
 H         -37.836681     -108.510353      -36.472710
 C         -40.778118     -109.264252      -34.464939
 C         -39.902943     -110.429512      -34.680443
 C         -42.113571     -109.560242      -34.057224
 C         -39.842060     -111.271080      -33.271122
 C         -42.210976     -110.373306      -32.721428
 C         -41.299812     -111.699173      -32.835701
 H         -38.829884     -110.102203      -34.821487
 H         -40.262779     -111.111542      -35.479931
 H         -42.583607     -108.613853      -33.834858
 H         -42.632553     -109.925171      -34.973900
 H         -39.466858     -110.645607      -32.538170
 H         -39.180931     -112.094124      -33.420174
 H         -43.322861     -110.691910      -32.393112
 H         -41.900017     -109.661972      -31.920122
 H         -41.243690     -112.231781      -31.818321
 H         -41.748840     -112.359840      -33.566677
