20
 generated by VMD
 C         -12.218145      -32.033768       -8.611444
 N         -12.842327      -31.571175       -9.399876
 H         -10.477598      -34.432011       -7.003104
 H         -11.406075      -33.780193       -5.671638
 C         -11.144436      -34.666698       -6.224959
 C         -10.438082      -35.580547       -5.191970
 C         -12.404600      -35.251820       -6.837208
 C         -11.385827      -36.087631       -4.089762
 C         -13.320152      -35.609386       -5.683713
 C         -12.677065      -36.551331       -4.682686
 H          -9.668039      -34.941837       -4.699737
 H         -10.007659      -36.449417       -5.653755
 H         -12.791030      -34.439831       -7.438875
 H         -12.160042      -36.154221       -7.454879
 H         -11.621614      -35.158588       -3.601393
 H         -10.936906      -36.873337       -3.426821
 H         -14.302242      -35.981983       -6.121119
 H         -13.465401      -34.714405       -5.133053
 H         -13.431037      -36.813004       -3.879317
 H         -12.451426      -37.515320       -5.193884
