20
 generated by VMD
 C         -41.545055     -119.431931      -34.474678
 N         -41.317211     -120.043541      -35.410267
 H         -43.339291     -118.464836      -36.721275
 H         -41.997822     -119.041115      -33.533699
 C         -43.809803     -118.237213      -37.662655
 C         -42.922478     -118.154640      -38.884506
 C         -45.133541     -117.575699      -37.671009
 C         -43.764214     -118.644096      -40.078445
 C         -45.919136     -117.966278      -38.865173
 C         -45.122665     -117.883446      -40.188576
 H         -42.066475     -118.802650      -38.682613
 H         -42.610180     -117.164101      -38.894657
 H         -45.823883     -117.764549      -36.835407
 H         -44.845280     -116.512260      -37.586422
 H         -43.911034     -119.744789      -40.122314
 H         -43.198483     -118.389145      -40.942982
 H         -46.790791     -117.348900      -39.135056
 H         -46.386017     -119.014267      -38.827171
 H         -45.683041     -118.138931      -41.162842
 H         -44.843185     -116.779999      -40.402966
