20
 generated by VMD
 C         -68.905281     -193.921967      -64.488220
 N         -68.434128     -194.146500      -65.527016
 H         -71.101547     -193.973663      -67.597237
 H         -69.395012     -193.603439      -63.543018
 C         -71.864044     -193.266983      -67.265770
 C         -71.547455     -192.053864      -66.481491
 C         -73.257553     -193.829544      -67.357384
 C         -72.776695     -191.331863      -65.822685
 C         -74.321114     -193.079437      -66.461990
 C         -73.696808     -192.383102      -65.258720
 H         -70.949844     -191.445648      -67.203972
 H         -70.884438     -192.288162      -65.612053
 H         -73.642128     -193.982162      -68.414581
 H         -73.207268     -194.766327      -66.848732
 H         -73.225517     -190.601578      -66.450699
 H         -72.411987     -190.752213      -64.989738
 H         -75.119156     -193.752441      -66.266312
 H         -74.815422     -192.243088      -67.024796
 H         -74.451103     -191.826309      -64.615303
 H         -73.214844     -193.047958      -64.598946
