20
 generated by VMD
 C         -11.705234      -41.416595       -6.630727
 N         -11.200413      -42.350517       -6.333690
 H         -14.586662      -42.229214       -8.198683
 H         -15.039709      -41.194023       -9.454756
 C         -15.227632      -42.227753       -9.184736
 C         -16.713474      -42.465088       -8.869911
 C         -14.778508      -43.295490      -10.146942
 C         -17.618587      -42.549656      -10.151851
 C         -15.609487      -43.201736      -11.456281
 C         -17.085850      -43.533298      -11.210452
 H         -17.067802      -41.692566       -8.180061
 H         -16.790928      -43.506409       -8.437931
 H         -13.701683      -43.156265      -10.394668
 H         -14.974299      -44.310196       -9.656400
 H         -17.653728      -41.531212      -10.567784
 H         -18.602749      -42.896046       -9.805250
 H         -15.233497      -43.947994      -12.145920
 H         -15.463571      -42.262264      -12.045029
 H         -17.576330      -43.554047      -12.176007
 H         -17.228537      -44.591614      -10.866782
