20
 generated by VMD
 C         -40.060875     -104.827072      -36.097816
 N         -39.475510     -104.449066      -37.027454
 H         -39.726837     -108.422829      -35.298988
 H         -40.628891     -105.051506      -35.204605
 C         -39.861298     -108.259453      -34.236187
 C         -38.822750     -107.303459      -33.754215
 C         -40.264645     -109.470993      -33.512337
 C         -39.070038     -107.134735      -32.186687
 C         -39.947319     -109.373207      -31.960512
 C         -38.838367     -108.468094      -31.579292
 H         -39.062103     -106.394547      -34.312305
 H         -37.910534     -107.755142      -33.885151
 H         -41.351784     -109.634094      -33.685829
 H         -39.720982     -110.248672      -33.992207
 H         -40.091793     -106.809288      -32.014610
 H         -38.461777     -106.336853      -31.741484
 H         -39.930794     -110.363663      -31.615211
 H         -40.853970     -108.996185      -31.436285
 H         -38.654461     -108.368279      -30.393915
 H         -37.921631     -108.817993      -31.925041
