20
 generated by VMD
 C         -76.446877     -203.010376      -66.576012
 N         -77.171425     -203.423630      -65.791679
 H         -75.358734     -200.547470      -68.460976
 H         -75.634460     -202.635132      -67.205566
 C         -74.865044     -199.831009      -69.063667
 C         -74.751480     -198.403198      -68.510139
 C         -73.757805     -200.365891      -69.916786
 C         -73.460701     -197.685852      -68.791321
 C         -73.146233     -199.231705      -70.749992
 C         -72.749336     -197.864136      -70.051811
 H         -74.889992     -198.423096      -67.445351
 H         -75.549332     -197.875610      -68.866386
 H         -72.974472     -200.690659      -69.318108
 H         -74.232239     -201.167114      -70.424217
 H         -72.803970     -197.872009      -67.956108
 H         -73.717224     -196.580673      -68.819336
 H         -73.796440     -198.900208      -71.548759
 H         -72.358582     -199.672821      -71.428291
 H         -71.630867     -197.895844      -69.824287
 H         -72.900826     -197.154373      -70.843178
