20
 generated by VMD
 C         -19.646025      -61.652683      -16.258663
 N         -20.135138      -61.080536      -17.108099
 H         -21.808891      -63.053417      -17.669405
 H         -19.342577      -62.365459      -15.383142
 C         -22.739132      -63.546314      -17.531170
 C         -23.615292      -63.615891      -18.716932
 C         -23.207760      -63.808872      -16.112961
 C         -24.678053      -64.645622      -18.583092
 C         -24.124290      -64.969170      -16.039766
 C         -25.187675      -64.746170      -17.082060
 H         -22.924284      -63.885536      -19.514095
 H         -24.004044      -62.610058      -18.870600
 H         -22.273731      -63.922771      -15.468094
 H         -23.715263      -62.932449      -15.661394
 H         -24.244556      -65.623390      -18.891607
 H         -25.405750      -64.425362      -19.439016
 H         -24.561872      -65.055313      -15.084325
 H         -23.500235      -65.816177      -16.231014
 H         -25.753971      -65.667397      -17.225519
 H         -25.825497      -63.833450      -16.870403
