20
 generated by VMD
 C         -41.720009     -120.225876      -34.316303
 N         -42.247402     -121.235580      -34.356026
 H         -43.400299     -119.298813      -37.318104
 H         -41.261127     -119.267166      -34.394733
 C         -43.977566     -119.114899      -38.275455
 C         -43.102039     -118.772858      -39.449886
 C         -45.326359     -118.427734      -38.050472
 C         -43.912041     -118.885597      -40.752872
 C         -46.080463     -118.462433      -39.365044
 C         -45.192883     -117.982391      -40.536011
 H         -42.287037     -119.470558      -39.481468
 H         -42.466980     -117.807022      -39.376579
 H         -45.791473     -118.992882      -37.262756
 H         -45.160912     -117.360313      -37.658371
 H         -44.139820     -119.934135      -40.837143
 H         -43.364887     -118.553780      -41.571903
 H         -47.026688     -117.789925      -39.342651
 H         -46.519913     -119.547920      -39.667110
 H         -45.736275     -117.924400      -41.493282
 H         -44.723198     -116.952522      -40.613384
