20
 generated by VMD
 C         -47.373566     -138.478317      -45.675140
 N         -47.040722     -138.261459      -46.801208
 H         -50.573246     -138.547913      -44.548943
 H         -47.604763     -138.885391      -44.707932
 C         -51.554790     -138.619186      -44.994808
 C         -51.680988     -138.954025      -46.438663
 C         -52.763115     -138.091278      -44.289429
 C         -52.789040     -139.969803      -46.622421
 C         -53.866528     -139.129547      -44.455685
 C         -54.061703     -139.514404      -45.857647
 H         -50.774647     -139.486160      -46.677338
 H         -51.780125     -137.924469      -46.867199
 H         -52.472126     -137.925568      -43.275307
 H         -53.022400     -137.113770      -44.679825
 H         -52.375019     -140.890320      -46.182766
 H         -53.086239     -140.110123      -47.720715
 H         -54.892826     -138.775085      -44.111946
 H         -53.535877     -139.969513      -43.942627
 H         -54.957104     -140.345276      -46.044060
 H         -54.431942     -138.700165      -46.504356
