20
 generated by VMD
 C         -48.027840     -133.924484      -47.573128
 N         -48.105900     -133.319611      -48.596375
 H         -49.425148     -134.259949      -44.137165
 H         -47.955761     -134.419876      -46.633801
 C         -49.998322     -134.992020      -43.613056
 C         -50.228634     -136.203232      -44.506653
 C         -51.085133     -134.729462      -42.593102
 C         -50.539021     -137.422333      -43.695446
 C         -51.317684     -135.963333      -41.771782
 C         -51.695007     -137.176224      -42.742256
 H         -49.234463     -136.383163      -45.116524
 H         -51.018078     -135.964584      -45.217815
 H         -50.800079     -133.917236      -41.867439
 H         -52.024353     -134.435242      -43.033165
 H         -49.604774     -137.638824      -43.172649
 H         -50.736477     -138.370651      -44.224758
 H         -52.176598     -135.721924      -41.033291
 H         -50.496998     -136.300537      -41.097260
 H         -51.791313     -138.108337      -42.201515
 H         -52.531879     -136.838333      -43.429070
