20
 generated by VMD
 C         -48.437683     -135.720016      -46.368385
 N         -47.514431     -135.862091      -45.606426
 H         -51.825340     -134.842880      -45.799519
 H         -49.374317     -135.581390      -46.970158
 C         -51.854046     -135.736877      -45.220947
 C         -52.420963     -137.043045      -45.501587
 C         -51.236519     -135.589310      -43.827564
 C         -51.567047     -138.258255      -45.050804
 C         -50.486092     -136.834045      -43.325462
 C         -51.091503     -138.173538      -43.613159
 H         -52.467846     -137.201691      -46.585812
 H         -53.447178     -137.130692      -45.085247
 H         -50.588104     -134.653870      -43.672234
 H         -52.093292     -135.452103      -43.160328
 H         -50.753761     -138.399902      -45.727039
 H         -52.164730     -139.162079      -45.299904
 H         -50.171612     -136.808655      -42.318394
 H         -49.593384     -136.822372      -43.882175
 H         -50.318634     -138.917572      -43.457588
 H         -51.886101     -138.250000      -43.042339
