20
 generated by VMD
 C         -57.943672     -167.793091      -55.231945
 N         -56.922131     -168.178558      -54.977661
 H         -61.083893     -166.480316      -55.647633
 H         -58.886909     -167.447556      -55.614212
 C         -62.098396     -166.407227      -55.976532
 C         -62.390205     -167.202057      -57.107048
 C         -62.878517     -165.157639      -55.614048
 C         -63.901043     -167.396957      -57.313507
 C         -64.379501     -165.460358      -55.716343
 C         -64.710434     -166.132126      -57.111233
 H         -61.829243     -168.286926      -57.089405
 H         -62.002419     -166.797394      -57.955864
 H         -62.516430     -164.862320      -54.552376
 H         -62.516594     -164.373871      -56.263409
 H         -64.319550     -168.227066      -56.693108
 H         -64.140678     -167.652420      -58.358692
 H         -64.853920     -164.373337      -55.620209
 H         -64.873184     -165.985092      -54.804394
 H         -65.740822     -166.293518      -57.088520
 H         -64.523567     -165.371597      -57.844215
