20
 generated by VMD
 C         -27.952320      -82.596848      -27.164743
 N         -27.194710      -83.373108      -26.732327
 H         -31.388968      -84.185478      -26.324131
 H         -28.668056      -81.882431      -27.705938
 C         -31.757933      -84.967392      -25.772192
 C         -31.348738      -84.861694      -24.325218
 C         -32.288956      -86.237511      -26.319433
 C         -32.431892      -85.500740      -23.437584
 C         -33.195141      -87.009262      -25.383364
 C         -32.667538      -86.929276      -23.890171
 H         -31.417274      -83.735939      -24.309036
 H         -30.320383      -85.217758      -24.103107
 H         -33.055920      -85.983009      -27.084208
 H         -31.528610      -86.827126      -26.828220
 H         -33.363308      -85.025696      -23.404095
 H         -32.107777      -85.302727      -22.394964
 H         -33.331501      -88.088020      -25.714727
 H         -34.190697      -86.572899      -25.290157
 H         -33.376640      -87.626984      -23.264469
 H         -31.689793      -87.380547      -24.026030
