20
 generated by VMD
 C         -30.513111      -94.023392      -25.878628
 N         -30.439276      -93.621819      -24.804708
 H         -33.873699      -92.847260      -26.955612
 H         -30.436317      -94.413895      -26.911573
 C         -34.314285      -92.380074      -27.798065
 C         -35.773552      -92.665741      -28.109837
 C         -33.392223      -91.997559      -28.938139
 C         -36.285873      -91.408394      -28.688931
 C         -33.952759      -90.902870      -29.753233
 C         -35.501266      -90.935417      -29.891870
 H         -36.148209      -93.029472      -27.100992
 H         -35.789040      -93.477921      -28.918880
 H         -32.460468      -91.599640      -28.476057
 H         -33.080990      -92.932129      -29.358622
 H         -36.266132      -90.627411      -28.023813
 H         -37.331604      -91.457268      -29.070124
 H         -33.504066      -90.869957      -30.730740
 H         -33.637661      -89.941658      -29.286385
 H         -35.689552      -89.866325      -30.256746
 H         -35.823692      -91.518936      -30.861301
