20
 generated by VMD
 C         -40.691795     -119.301735      -35.119617
 N         -39.733471     -118.712624      -35.207680
 H         -43.558620     -116.910736      -36.152885
 H         -41.759956     -119.584061      -35.021130
 C         -43.981071     -117.102905      -37.113457
 C         -43.103539     -117.576035      -38.196198
 C         -45.336903     -116.552345      -37.580753
 C         -43.712078     -118.352211      -39.295822
 C         -45.962650     -117.310745      -38.829678
 C         -44.947582     -117.670425      -39.856873
 H         -42.218224     -118.076508      -37.788734
 H         -42.601639     -116.741005      -38.730537
 H         -46.053616     -116.536995      -36.677559
 H         -45.174976     -115.521393      -37.798069
 H         -44.116150     -119.303627      -39.092106
 H         -42.984829     -118.650291      -40.095417
 H         -46.591709     -116.494934      -39.146496
 H         -46.579781     -118.056892      -38.560051
 H         -45.500973     -118.391594      -40.557678
 H         -44.692261     -116.881088      -40.498932
