20
 generated by VMD
 C          -1.948949      -16.807402        2.867646
 N          -2.275994      -16.034376        2.136969
 H          -4.364095      -15.812281       -0.126251
 H          -4.554740      -17.181078       -1.180504
 C          -5.060730      -16.580084       -0.370681
 C          -6.318532      -15.941178       -0.968343
 C          -5.343066      -17.584999        0.729041
 C          -7.438959      -16.924501       -1.215274
 C          -6.364089      -18.606230        0.299728
 C          -7.753030      -17.911440       -0.095534
 H          -5.949994      -15.511256       -1.950261
 H          -6.689641      -15.076150       -0.458922
 H          -4.456558      -17.999626        1.076676
 H          -5.659815      -17.104914        1.627027
 H          -7.216316      -17.494549       -2.181038
 H          -8.317489      -16.311949       -1.460386
 H          -6.606209      -19.249561        1.164513
 H          -6.075068      -19.246956       -0.512953
 H          -8.337344      -18.712095       -0.520273
 H          -8.223675      -17.509737        0.814905
