20
 generated by VMD
 C         -71.388428     -198.994461      -64.603020
 N         -70.469772     -198.678146      -65.215584
 H         -72.203941     -196.544189      -66.553230
 H         -72.127434     -199.293106      -63.847038
 C         -72.979492     -195.961853      -67.056450
 C         -73.161423     -194.526428      -66.657738
 C         -73.454269     -196.437180      -68.341476
 C         -73.369385     -193.649918      -67.950531
 C         -74.676819     -195.669785      -68.840279
 C         -74.475983     -194.199509      -68.832832
 H         -72.220619     -194.158493      -66.222717
 H         -74.045586     -194.599258      -66.051674
 H         -72.640213     -196.332581      -69.037521
 H         -73.552040     -197.526489      -68.325951
 H         -72.410072     -193.519302      -68.532570
 H         -73.750412     -192.701981      -67.497566
 H         -75.410164     -195.982193      -68.069672
 H         -75.086082     -195.833115      -69.825562
 H         -74.095230     -193.914352      -69.756516
 H         -75.495987     -193.565948      -68.626602
