20
 generated by VMD
 C         -41.007393     -104.446983      -36.172035
 N         -42.020798     -104.984589      -36.418400
 H         -38.300171     -104.295982      -33.314217
 H         -40.232521     -103.716057      -35.975140
 C         -38.243893     -105.283813      -32.969208
 C         -37.016628     -105.680389      -32.175343
 C         -39.253170     -106.290047      -33.315956
 C         -37.262489     -106.650620      -31.178795
 C         -39.472103     -107.391838      -32.305367
 C         -38.106510     -107.805122      -31.682547
 H         -36.599766     -104.721542      -31.854557
 H         -36.209011     -106.023544      -32.878139
 H         -40.214863     -105.688538      -33.422390
 H         -39.063396     -106.716446      -34.296711
 H         -37.974102     -106.405899      -30.383455
 H         -36.413071     -106.921028      -30.547161
 H         -39.818981     -108.336296      -32.724663
 H         -40.008148     -106.965111      -31.510551
 H         -38.348793     -108.442818      -30.894678
 H         -37.418560     -108.331306      -32.419006
