20
 generated by VMD
 C         -71.343216     -199.002792      -64.567184
 N         -70.450401     -198.653091      -65.233070
 H         -72.218430     -196.581589      -66.579559
 H         -72.162796     -199.184601      -63.907837
 C         -72.983643     -195.976288      -67.042999
 C         -73.182365     -194.512512      -66.674545
 C         -73.514999     -196.435501      -68.378548
 C         -73.382736     -193.643066      -67.922646
 C         -74.653664     -195.646179      -68.794601
 C         -74.445091     -194.159714      -68.842964
 H         -72.322754     -194.092010      -66.088562
 H         -74.010818     -194.374817      -65.925339
 H         -72.607201     -196.445374      -69.029236
 H         -73.665085     -197.524994      -68.423439
 H         -72.464066     -193.515091      -68.470078
 H         -73.615623     -192.640259      -67.521820
 H         -75.389336     -196.006485      -68.059586
 H         -75.130173     -195.966354      -69.757217
 H         -73.980560     -193.974731      -69.888893
 H         -75.322563     -193.657471      -68.735062
