20
 generated by VMD
 C         -47.838863     -139.695526      -46.078720
 N         -46.788219     -139.314453      -45.984573
 H         -51.053959     -138.939865      -44.788189
 H         -48.923527     -139.874161      -46.071735
 C         -51.989883     -139.216187      -45.289734
 C         -51.951538     -139.422272      -46.769447
 C         -53.174526     -138.818909      -44.584763
 C         -53.005737     -140.358002      -47.180798
 C         -54.183777     -139.901947      -44.951988
 C         -54.363674     -140.101929      -46.399517
 H         -50.951107     -139.778015      -46.997173
 H         -51.971806     -138.554672      -47.393936
 H         -52.928207     -138.695435      -43.531277
 H         -53.629612     -137.871292      -44.976345
 H         -52.582554     -141.368118      -47.042931
 H         -53.187984     -140.286041      -48.245068
 H         -55.152802     -139.635681      -44.397652
 H         -54.008827     -140.894012      -44.633152
 H         -54.951511     -140.907364      -46.562538
 H         -54.568184     -139.132233      -46.846664
