20
 generated by VMD
 C         -30.686996      -92.862328      -26.022013
 N         -30.104780      -92.544258      -25.084631
 H         -32.798183      -89.619705      -26.348808
 H         -31.259726      -93.252090      -26.792576
 C         -33.381966      -90.022858      -27.135124
 C         -33.856300      -91.357445      -27.013760
 C         -33.407009      -89.371635      -28.532169
 C         -35.247036      -91.571289      -27.897182
 C         -34.705639      -89.653358      -29.351068
 C         -35.176632      -91.078705      -29.348967
 H         -34.202957      -91.541626      -26.002668
 H         -33.091949      -92.041389      -27.351650
 H         -33.243832      -88.315079      -28.441814
 H         -32.540962      -89.723862      -29.000603
 H         -36.058414      -91.184540      -27.319965
 H         -35.481373      -92.675476      -28.054890
 H         -34.388302      -89.265045      -30.323290
 H         -35.483101      -89.042786      -28.901846
 H         -36.179680      -91.140205      -29.793337
 H         -34.444031      -91.500580      -30.058311
