20
 generated by VMD
 C         -50.744160     -129.809738      -45.233604
 N         -51.027203     -129.442322      -44.213268
 H         -49.307026     -129.094513      -42.290901
 H         -50.475037     -129.909744      -46.248367
 C         -48.253597     -129.308304      -41.827023
 C         -47.996078     -130.671127      -41.351570
 C         -47.431160     -128.169052      -41.385708
 C         -46.459499     -130.989029      -41.327488
 C         -45.903568     -128.455292      -41.252041
 C         -45.680031     -129.861069      -40.584251
 H         -48.660084     -131.350159      -41.981506
 H         -48.366787     -130.774551      -40.363686
 H         -47.549835     -127.496193      -42.220272
 H         -48.019089     -127.836731      -40.522507
 H         -46.321815     -131.161346      -42.384750
 H         -46.262482     -131.874207      -40.768059
 H         -45.556721     -127.622795      -40.590927
 H         -45.485027     -128.319763      -42.229347
 H         -44.561497     -130.007645      -40.493618
 H         -46.112709     -129.770691      -39.575592
