20
 generated by VMD
 C         -59.469494     -158.238846      -57.322124
 N         -58.447777     -158.524857      -57.755733
 H         -60.247112     -158.186295      -53.426376
 H         -60.408363     -157.929611      -56.955128
 C         -60.034405     -159.089828      -52.872585
 C         -58.565548     -159.167007      -52.504562
 C         -60.689342     -160.436829      -53.110916
 C         -58.370560     -160.215881      -51.330791
 C         -60.459457     -161.633820      -52.167221
 C         -58.942009     -161.642105      -51.728966
 H         -58.162876     -158.197647      -52.152096
 H         -57.984806     -159.559494      -53.323112
 H         -61.683971     -160.237305      -53.378090
 H         -60.173489     -160.728638      -54.051544
 H         -59.014530     -159.641998      -50.529961
 H         -57.339211     -160.318481      -51.090965
 H         -60.588955     -162.625519      -52.563591
 H         -61.124767     -161.470474      -51.376732
 H         -58.992352     -162.302505      -50.773956
 H         -58.257774     -162.076187      -52.495461
