20
 generated by VMD
 C         -49.950031     -127.749565      -40.628387
 N         -50.884937     -128.003098      -41.228855
 H         -47.652706     -127.476936      -41.410702
 H         -49.327297     -127.527016      -39.798065
 C         -46.806877     -126.884300      -41.072746
 C         -45.727711     -127.356110      -40.136421
 C         -46.830566     -125.388939      -41.408672
 C         -44.338539     -126.847725      -40.673893
 C         -45.440033     -124.903046      -41.829784
 C         -44.391903     -125.368660      -40.907135
 H         -45.665009     -128.472565      -40.163857
 H         -45.846329     -127.014847      -39.157417
 H         -47.616158     -125.094818      -42.040504
 H         -47.298988     -124.836334      -40.495583
 H         -43.990715     -127.362694      -41.606880
 H         -43.582020     -127.156441      -39.930122
 H         -45.592415     -123.841774      -41.949051
 H         -45.302853     -125.344269      -42.848736
 H         -43.502796     -124.929276      -41.354664
 H         -44.613731     -124.920204      -39.925957
