20
 generated by VMD
 C         -68.401970     -185.475189      -66.149178
 N         -69.206184     -185.961365      -66.851143
 H         -69.474594     -183.081970      -63.804222
 H         -67.620399     -185.056015      -65.567039
 C         -69.167862     -183.875107      -63.031673
 C         -70.337021     -184.622910      -62.393387
 C         -67.905014     -183.740158      -62.268021
 C         -69.876015     -185.923752      -61.707691
 C         -67.836327     -184.629456      -61.074463
 C         -68.307518     -186.017212      -61.349258
 H         -71.082443     -184.932648      -63.116993
 H         -70.829277     -184.074280      -61.627750
 H         -67.158852     -183.945557      -63.041336
 H         -67.855354     -182.674606      -61.940968
 H         -69.888428     -186.793304      -62.306026
 H         -70.621521     -186.156921      -60.938885
 H         -68.279526     -184.111649      -60.224625
 H         -66.776451     -184.887756      -60.826462
 H         -67.854034     -186.380402      -62.151409
 H         -67.946182     -186.774033      -60.664574
