20
 generated by VMD
 C         -40.527012     -106.821289      -37.495201
 N         -39.412247     -106.659218      -37.836411
 H         -38.617340     -108.217415      -34.538425
 H         -41.424297     -106.920311      -36.936913
 C         -39.253155     -108.952957      -34.043583
 C         -38.680241     -109.998077      -33.195549
 C         -40.723438     -108.803993      -34.347137
 C         -39.662609     -110.516388      -32.107548
 C         -41.600044     -109.352745      -33.284866
 C         -41.091991     -110.736000      -32.747490
 H         -37.852486     -109.482437      -32.818516
 H         -38.213997     -110.759705      -33.785080
 H         -40.900124     -107.678406      -34.404377
 H         -41.001289     -109.252106      -35.351498
 H         -39.663933     -109.737389      -31.225996
 H         -39.309055     -111.527863      -31.734310
 H         -42.673626     -109.306717      -33.665718
 H         -41.729073     -108.684425      -32.358299
 H         -41.772812     -111.191856      -32.004314
 H         -40.974537     -111.413399      -33.601635
