20
 generated by VMD
 C         -28.956478      -81.439163      -27.659214
 N         -29.760485      -80.603325      -27.499454
 H         -29.166313      -82.199013      -23.912580
 H         -28.128391      -82.215248      -27.845226
 C         -29.601017      -83.160507      -23.820074
 C         -29.792957      -83.903992      -22.595863
 C         -30.103664      -83.924713      -24.970371
 C         -31.302946      -83.915802      -22.346380
 C         -31.580681      -84.252190      -24.909948
 C         -32.054203      -84.734566      -23.447933
 H         -29.238018      -83.348038      -21.775093
 H         -29.356115      -84.847748      -22.616554
 H         -29.919857      -83.441765      -25.965445
 H         -29.501902      -84.825256      -24.911196
 H         -31.794113      -82.941307      -22.074831
 H         -31.289999      -84.441872      -21.331343
 H         -31.731253      -85.071640      -25.604256
 H         -32.212425      -83.407280      -25.178038
 H         -33.187298      -84.695419      -23.258089
 H         -31.683578      -85.739899      -23.464451
