20
 generated by VMD
 C         -79.113213     -209.260483      -76.895477
 N         -79.006248     -209.852646      -75.937401
 H         -77.800255     -209.709244      -73.273232
 H         -79.196404     -208.758911      -77.916885
 C         -78.099258     -210.638077      -72.706917
 C         -77.236595     -211.020248      -71.639191
 C         -79.368179     -211.394653      -72.992523
 C         -77.923119     -211.455078      -70.479111
 C         -79.963135     -212.025833      -71.844620
 C         -78.923714     -212.572861      -70.832771
 H         -76.520172     -210.162170      -71.421951
 H         -76.642853     -211.922531      -72.030045
 H         -79.997368     -210.655457      -73.480705
 H         -79.032257     -212.103516      -73.763557
 H         -78.540390     -210.611404      -70.134132
 H         -77.266289     -211.747192      -69.638657
 H         -80.518105     -212.963181      -72.309372
 H         -80.656357     -211.395020      -71.381134
 H         -79.602539     -212.853745      -70.026573
 H         -78.406487     -213.475555      -71.173233
