20
 generated by VMD
 C         -69.437332     -180.931030      -62.260006
 N         -70.196754     -180.073090      -62.298000
 H         -66.958244     -181.533035      -60.602028
 H         -68.737144     -181.784531      -62.202061
 C         -66.469086     -180.534042      -60.530899
 C         -64.989708     -180.399536      -60.545498
 C         -67.192162     -179.265610      -59.978115
 C         -64.377670     -179.168442      -61.139198
 C         -66.702621     -177.985123      -60.556160
 C         -65.215134     -177.915024      -60.697350
 H         -64.526741     -181.282288      -60.960793
 H         -64.680779     -180.393463      -59.512859
 H         -68.274635     -179.390915      -60.142551
 H         -67.021660     -179.330032      -58.836784
 H         -64.445381     -179.344833      -62.153049
 H         -63.376152     -179.022171      -60.765175
 H         -67.108604     -177.097870      -60.049702
 H         -67.095703     -178.016968      -61.564445
 H         -64.854622     -177.260010      -61.557495
 H         -64.728050     -177.655167      -59.780964
