20
 generated by VMD
 C         -70.342712     -181.220428      -62.581066
 N         -70.792694     -180.190292      -62.874249
 H         -66.607712     -181.764297      -61.289070
 H         -69.898186     -182.149475      -62.291779
 C         -66.332809     -180.877243      -60.693340
 C         -64.916595     -180.667908      -60.222050
 C         -67.148880     -179.725815      -60.302429
 C         -64.209755     -179.428787      -60.758030
 C         -66.612488     -178.431335      -61.006500
 C         -65.178055     -178.215118      -60.492828
 H         -64.237198     -181.500397      -60.596642
 H         -65.004379     -180.633926      -59.091442
 H         -68.230721     -180.063004      -60.542198
 H         -67.119331     -179.584930      -59.203884
 H         -64.069305     -179.469620      -61.832413
 H         -63.160713     -179.275085      -60.411591
 H         -67.279213     -177.584518      -60.770710
 H         -66.675529     -178.682098      -62.091286
 H         -64.580528     -177.405334      -61.120106
 H         -65.145088     -177.862030      -59.451260
