20
 generated by VMD
 C         -79.445618     -208.942245      -76.591148
 N         -79.040497     -210.020752      -76.608421
 H         -77.577202     -209.603409      -73.398331
 H         -79.821655     -207.966583      -76.496674
 C         -77.955406     -210.179489      -72.538811
 C         -77.027817     -210.705338      -71.396202
 C         -79.146484     -211.173645      -72.927078
 C         -77.807823     -211.375366      -70.289444
 C         -79.761017     -211.785797      -71.707642
 C         -78.875580     -212.410934      -70.711990
 H         -76.566978     -209.844727      -70.881454
 H         -76.283409     -211.309174      -71.854805
 H         -79.860931     -210.658234      -73.458893
 H         -78.662697     -211.855362      -73.637611
 H         -78.203026     -210.681931      -69.533928
 H         -77.058975     -211.916046      -69.678932
 H         -80.501808     -212.448074      -72.037041
 H         -80.266808     -210.927109      -71.217804
 H         -79.407928     -212.967270      -69.913612
 H         -78.369843     -213.109177      -71.398788
