20
 generated by VMD
 C         -67.271690     -177.783875      -57.384350
 N         -67.619812     -178.728714      -56.831650
 H         -64.265747     -176.094376      -58.992622
 H         -66.914146     -176.855469      -57.813046
 C         -64.371338     -175.233475      -59.617352
 C         -65.628998     -174.468216      -59.506641
 C         -63.173019     -174.782806      -60.482037
 C         -65.361771     -172.998581      -59.438286
 C         -62.917278     -173.214279      -60.251461
 C         -64.236046     -172.533951      -60.385597
 H         -66.137413     -174.708252      -58.497742
 H         -66.230911     -174.722717      -60.359837
 H         -62.238720     -175.386978      -60.161633
 H         -63.362640     -174.980392      -61.611786
 H         -65.102478     -172.699112      -58.431362
 H         -66.266205     -172.631454      -59.906548
 H         -62.133526     -172.933624      -60.940998
 H         -62.572121     -173.028702      -59.167187
 H         -64.282066     -171.437057      -60.185608
 H         -64.502113     -172.662186      -61.430687
