20
 generated by VMD
 C         -12.317115      -32.218628       -8.588937
 N         -12.762708      -31.311470       -9.108159
 H         -10.507692      -34.400539       -7.170669
 H         -11.370028      -33.645210       -5.878636
 C         -11.126035      -34.595951       -6.338201
 C         -10.337367      -35.462696       -5.303914
 C         -12.385897      -35.287785       -6.814935
 C         -11.314077      -35.714748       -4.066169
 C         -13.266272      -35.613224       -5.658902
 C         -12.627291      -36.418514       -4.554211
 H          -9.494811      -34.829266       -4.909204
 H         -10.026268      -36.437634       -5.666830
 H         -12.852393      -34.580570       -7.510878
 H         -12.152040      -36.226147       -7.325529
 H         -11.615114      -34.736618       -3.682727
 H         -10.741689      -36.346462       -3.356274
 H         -14.039805      -36.212372       -6.100715
 H         -13.687385      -34.662861       -5.239096
 H         -13.381025      -36.384552       -3.669457
 H         -12.534848      -37.480663       -4.807390
