20
 generated by VMD
 C         -78.807838     -204.171432      -70.358017
 N         -79.860031     -204.647781      -70.532684
 H         -76.514961     -203.460342      -68.516708
 H         -77.877655     -203.721924      -70.483376
 C         -75.746635     -203.211990      -69.216835
 C         -75.785858     -201.903152      -69.898735
 C         -74.464264     -203.928192      -68.991272
 C         -74.535652     -201.559402      -70.783829
 C         -73.330925     -202.912674      -68.913445
 C         -73.319122     -202.290771      -70.355598
 H         -75.707390     -201.224258      -69.088699
 H         -76.801430     -201.691376      -70.357719
 H         -74.501587     -204.560043      -68.132645
 H         -74.297462     -204.607620      -69.761963
 H         -74.372330     -200.513321      -70.731628
 H         -74.723091     -201.711334      -71.837982
 H         -72.376755     -203.574280      -68.777443
 H         -73.435616     -202.367416      -67.976028
 H         -72.500153     -201.547302      -70.395309
 H         -73.020920     -203.161224      -71.020607
