20
 generated by VMD
 C         -13.121215      -28.616957       -5.504367
 N         -12.754488      -27.565519       -5.484546
 H         -11.275311      -30.959942       -3.255743
 H         -11.205258      -29.411703       -3.940652
 C         -10.594013      -30.276970       -3.638609
 C          -9.794806      -30.983551       -4.760451
 C          -9.613489      -29.772375       -2.492588
 C          -8.634892      -30.121462       -5.291048
 C          -8.630431      -28.731014       -3.158787
 C          -7.777798      -29.419807       -4.310257
 H         -10.519849      -31.255781       -5.574062
 H          -9.389938      -31.903896       -4.449196
 H         -10.248049      -29.326149       -1.692172
 H          -9.122226      -30.686974       -2.054710
 H          -9.082414      -29.427761       -5.954067
 H          -7.955507      -30.688158       -5.915329
 H          -7.899230      -28.301044       -2.391401
 H          -9.142469      -27.857038       -3.532006
 H          -7.199314      -28.640051       -4.783500
 H          -7.162770      -30.227688       -3.801980
