20
 generated by VMD
 C         -52.494648     -146.910889      -45.356487
 N         -53.164673     -147.397354      -44.502209
 H         -54.870186     -147.071365      -48.031410
 H         -51.896111     -146.488663      -46.193127
 C         -54.693958     -146.209061      -48.625217
 C         -53.311493     -146.063126      -49.276772
 C         -55.294830     -144.923431      -47.974445
 C         -53.291553     -144.938583      -50.288193
 C         -55.223366     -143.765167      -49.025276
 C         -53.849274     -143.593475      -49.697407
 H         -53.008953     -147.005157      -49.693943
 H         -52.534389     -145.782104      -48.443642
 H         -56.314518     -145.100098      -47.665108
 H         -54.520668     -144.840942      -47.128605
 H         -53.894619     -145.302261      -51.204002
 H         -52.342419     -144.552490      -50.665958
 H         -55.710167     -142.925934      -48.631851
 H         -55.961601     -144.209396      -49.813499
 H         -54.007427     -143.103027      -50.691372
 H         -53.045567     -143.043472      -49.073593
