20
 generated by VMD
 C         -23.343412      -54.670326      -14.909324
 N         -23.648806      -53.920242      -15.764627
 H         -20.221594      -54.749115      -15.561626
 H         -22.644793      -55.177284      -14.166970
 C         -19.573141      -55.245258      -14.760923
 C         -19.127319      -54.615635      -13.453359
 C         -18.988031      -56.564365      -15.267680
 C         -18.551365      -55.564625      -12.364380
 C         -18.782019      -57.444519      -14.069784
 C         -17.860056      -56.784050      -13.065983
 H         -19.974619      -54.139614      -12.990963
 H         -18.467283      -53.775356      -13.650580
 H         -19.610271      -57.115654      -15.924370
 H         -18.157961      -56.360188      -15.905128
 H         -19.433802      -56.011189      -11.853160
 H         -17.834879      -55.035618      -11.679621
 H         -18.353205      -58.440044      -14.461683
 H         -19.740032      -57.659691      -13.580245
 H         -17.670610      -57.547836      -12.332300
 H         -16.966635      -56.452457      -13.611310
