20
 generated by VMD
 C         -79.048622     -204.297165      -70.548355
 N         -80.007240     -204.896362      -70.611343
 H         -76.790169     -203.396988      -68.741745
 H         -78.138664     -203.854645      -70.293625
 C         -75.801765     -203.137329      -69.218719
 C         -75.835312     -202.043457      -70.239311
 C         -74.619118     -203.999756      -68.880325
 C         -74.399879     -201.441055      -70.524376
 C         -73.233994     -203.348419      -68.999680
 C         -73.249214     -202.431259      -70.347168
 H         -76.512672     -201.205353      -70.049461
 H         -76.183472     -202.559830      -71.188133
 H         -74.771317     -204.189270      -67.834732
 H         -74.663452     -204.823181      -69.598785
 H         -74.163872     -200.566162      -69.891647
 H         -74.366348     -201.174072      -71.581833
 H         -72.350037     -203.979553      -69.212830
 H         -73.084770     -202.635269      -68.121017
 H         -72.342804     -201.854736      -70.404144
 H         -73.382950     -203.141586      -71.223930
