20
 generated by VMD
 C          -1.667253      -14.093678        2.189762
 N          -1.895438      -13.695625        1.170560
 H          -3.685677      -17.042816        1.291902
 H          -4.170152      -17.158060       -0.372772
 C          -4.599772      -17.040049        0.639422
 C          -5.307548      -15.690167        0.678479
 C          -5.510178      -18.244196        0.888061
 C          -6.649924      -15.640584       -0.094953
 C          -6.777737      -18.143879        0.035279
 C          -7.533508      -16.847406        0.219539
 H          -4.677396      -14.888074        0.297319
 H          -5.524591      -15.509027        1.781773
 H          -5.023073      -19.235294        0.866620
 H          -5.937640      -18.240538        1.947034
 H          -6.459335      -15.682722       -1.131775
 H          -7.177345      -14.723583        0.187833
 H          -7.453418      -18.900225        0.312749
 H          -6.593730      -18.268999       -1.028321
 H          -8.423162      -16.877960       -0.451646
 H          -7.904248      -16.860666        1.263163
