20
 generated by VMD
 C         -46.004433     -123.976974      -35.669563
 N         -46.597645     -125.001160      -35.497444
 H         -44.512344     -122.102707      -38.133434
 H         -45.465366     -123.131935      -35.960140
 C         -44.638920     -121.572899      -39.014320
 C         -43.288250     -121.459328      -39.715218
 C         -45.739937     -120.665512      -39.568062
 C         -43.478634     -121.491066      -41.251003
 C         -45.862312     -120.798569      -41.035091
 C         -44.569595     -120.520531      -41.761925
 H         -42.677242     -122.322449      -39.454796
 H         -42.798859     -120.427757      -39.478760
 H         -46.659401     -121.036186      -39.163631
 H         -45.747135     -119.611961      -39.184235
 H         -43.761368     -122.582291      -41.493130
 H         -42.464470     -121.132240      -41.676277
 H         -46.543022     -119.995758      -41.598938
 H         -46.383591     -121.844360      -41.280602
 H         -44.647594     -120.568130      -42.887775
 H         -44.340195     -119.458626      -41.584728
