20
 generated by VMD
 C         -70.319237     -197.139725      -66.150436
 N         -69.741402     -196.242645      -65.766045
 H         -71.934700     -194.363678      -64.725166
 H         -70.720245     -198.104584      -66.512077
 C         -72.568642     -194.140640      -65.614113
 C         -72.628693     -192.717651      -66.065071
 C         -73.353920     -195.224777      -66.314690
 C         -73.618477     -192.481308      -67.222801
 C         -73.896645     -194.895401      -67.743034
 C         -73.442719     -193.556137      -68.264946
 H         -71.682739     -192.355423      -66.298820
 H         -72.891754     -192.093109      -65.137688
 H         -72.675682     -196.110168      -66.383347
 H         -74.203262     -195.188858      -65.590813
 H         -73.434464     -191.556595      -67.741959
 H         -74.591026     -192.308395      -66.817421
 H         -75.018631     -194.976212      -67.778030
 H         -73.508156     -195.646027      -68.401825
 H         -72.349373     -193.761536      -68.633446
 H         -73.991264     -193.310028      -69.226845
