20
 generated by VMD
 C          -1.247085      -12.275590        1.401500
 N          -0.862442      -12.610442        0.426468
 H          -3.875546      -13.021096        0.986486
 H          -5.718338      -13.159325        0.693022
 C          -4.818409      -13.648763        1.082278
 C          -5.087553      -13.957529        2.551484
 C          -4.628529      -14.948886        0.276921
 C          -6.245622      -14.976814        2.815526
 C          -5.684166      -15.982822        0.518528
 C          -5.880814      -16.268358        1.983456
 H          -5.221705      -13.078015        3.177937
 H          -4.237461      -14.446404        2.991969
 H          -4.409667      -14.759789       -0.794865
 H          -3.748661      -15.449331        0.681744
 H          -7.218189      -14.628369        2.445040
 H          -6.299669      -15.290678        3.865924
 H          -5.337976      -16.914125        0.093126
 H          -6.652252      -15.779053        0.018242
 H          -6.780061      -16.906651        2.079350
 H          -5.054233      -16.801102        2.519885
