20
 generated by VMD
 C         -38.550640     -115.382812      -35.452251
 N         -39.290947     -115.316986      -34.552834
 H         -41.437180     -115.252235      -36.997887
 H         -37.889313     -115.352707      -36.243164
 C         -42.396709     -115.564957      -37.163616
 C         -42.809887     -115.484756      -38.580238
 C         -43.445904     -115.332298      -36.043327
 C         -44.278259     -116.030731      -38.858437
 C         -44.751328     -116.125061      -36.332554
 C         -45.317543     -115.846680      -37.730251
 H         -42.102814     -116.034897      -39.138950
 H         -42.848312     -114.463165      -38.889847
 H         -42.983177     -115.645180      -35.129986
 H         -43.605293     -114.285072      -36.224518
 H         -44.157883     -117.154007      -39.012505
 H         -44.694237     -115.661613      -39.811073
 H         -45.515228     -115.921768      -35.553856
 H         -44.428692     -117.175529      -36.256142
 H         -46.221699     -116.536522      -37.785721
 H         -45.861897     -114.936096      -37.806618
