20
 generated by VMD
 C         -57.419327     -162.478409      -56.230244
 N         -57.156727     -162.194641      -57.345993
 H         -59.613735     -165.100754      -55.149250
 H         -57.719711     -162.728638      -55.214600
 C         -60.620373     -164.660660      -54.802067
 C         -60.808983     -164.378922      -53.351974
 C         -61.725578     -164.634369      -55.846413
 C         -62.155708     -163.554199      -53.127689
 C         -62.790684     -163.600006      -55.444443
 C         -63.401512     -163.753006      -54.048050
 H         -59.972027     -163.711853      -52.950527
 H         -60.867100     -165.402771      -52.790062
 H         -61.408367     -164.314072      -56.875122
 H         -62.100597     -165.605194      -55.811363
 H         -61.938099     -162.490219      -53.061691
 H         -62.466267     -163.784515      -52.067158
 H         -63.673389     -163.598038      -56.147606
 H         -62.350712     -162.591568      -55.283474
 H         -64.156342     -163.012878      -53.647270
 H         -63.812843     -164.733078      -53.715946
