20
 generated by VMD
 C         -19.398624      -50.015808       -9.305962
 N         -19.623976      -51.085041       -9.675160
 H         -16.803078      -47.663658       -9.950933
 H         -19.491219      -48.689148       -9.271723
 C         -16.698637      -48.026707      -10.992579
 C         -15.696996      -49.006916      -11.551579
 C         -17.255653      -47.155205      -12.072048
 C         -16.158627      -49.756508      -12.794127
 C         -17.947561      -48.103840      -13.071501
 C         -16.921913      -48.978638      -13.849856
 H         -15.413276      -49.767662      -10.772234
 H         -14.845722      -48.375782      -11.794661
 H         -17.907593      -46.425152      -11.603561
 H         -16.412504      -46.649071      -12.557216
 H         -16.903944      -50.497063      -12.438593
 H         -15.280622      -50.263504      -13.231990
 H         -18.590652      -47.517426      -13.774902
 H         -18.575470      -48.757454      -12.550365
 H         -17.573572      -49.594135      -14.524077
 H         -16.218449      -48.388897      -14.560887
