20
 generated by VMD
 C         -61.689392     -172.372360      -54.908360
 N         -60.720406     -172.980316      -55.215302
 H         -62.154202     -170.704224      -58.479843
 H         -62.515839     -171.702072      -54.809608
 C         -62.759544     -170.076355      -57.785374
 C         -62.533325     -168.589996      -57.740520
 C         -64.313438     -170.574478      -57.709854
 C         -63.436852     -167.842621      -58.682144
 C         -65.129120     -169.788910      -58.635555
 C         -64.855537     -168.290146      -58.368919
 H         -61.438812     -168.332428      -58.031235
 H         -62.721226     -168.307861      -56.728123
 H         -64.298080     -171.637497      -58.000607
 H         -64.555099     -170.437180      -56.615391
 H         -63.286251     -168.165955      -59.684849
 H         -63.256504     -166.801865      -58.654053
 H         -66.201759     -170.091599      -58.541111
 H         -64.776085     -170.089920      -59.699844
 H         -65.587540     -167.769379      -59.058262
 H         -65.102737     -168.021515      -57.336132
