20
 generated by VMD
 C         -62.590179     -174.410141      -54.817902
 N         -63.500927     -174.108383      -55.538815
 H         -62.575878     -172.626465      -58.048740
 H         -61.818447     -174.773651      -54.142342
 C         -63.318859     -171.880905      -58.373348
 C         -63.513916     -170.650543      -57.454815
 C         -64.245285     -172.052872      -59.616898
 C         -63.716610     -169.369171      -58.214611
 C         -64.611122     -170.815430      -60.392124
 C         -64.748909     -169.553894      -59.340523
 H         -62.730938     -170.539612      -56.809113
 H         -64.518478     -170.872940      -56.825359
 H         -63.617817     -172.726212      -60.349766
 H         -65.110603     -172.711395      -59.320713
 H         -62.796822     -169.200317      -58.713001
 H         -64.008591     -168.617111      -57.529949
 H         -65.523666     -170.884567      -61.039604
 H         -63.780235     -170.491623      -61.040493
 H         -64.700722     -168.657013      -59.973568
 H         -65.690453     -169.561890      -58.885834
