20
 generated by VMD
 C         -29.041794      -88.151016      -25.171682
 N         -28.771065      -87.623947      -26.192011
 H         -31.344971      -89.910820      -27.059652
 H         -29.474377      -88.522186      -24.183910
 C         -32.302063      -89.431213      -27.060947
 C         -32.737160      -89.169601      -25.666445
 C         -33.179947      -89.145554      -28.215454
 C         -33.734161      -88.023003      -25.543386
 C         -34.001427      -87.930016      -28.121376
 C         -34.788811      -87.915253      -26.707315
 H         -31.903898      -88.833687      -24.975430
 H         -33.207352      -90.072929      -25.315214
 H         -32.548233      -88.968185      -29.123663
 H         -33.743553      -90.109436      -28.301622
 H         -33.157253      -87.063820      -25.478731
 H         -34.356441      -88.080170      -24.522161
 H         -34.653137      -87.897148      -28.943439
 H         -33.266338      -87.131874      -28.210653
 H         -35.461796      -87.093170      -26.618952
 H         -35.399815      -88.801453      -26.647211
