20
 generated by VMD
 C         -50.907555     -128.123871      -41.745430
 N         -51.979771     -128.567459      -41.859600
 H         -47.539577     -128.058151      -41.236275
 H         -50.017391     -127.552818      -41.553066
 C         -46.691841     -127.395325      -40.785046
 C         -45.499172     -127.890602      -40.050327
 C         -46.844158     -125.975113      -41.172997
 C         -44.275234     -127.421165      -40.844376
 C         -45.582970     -125.594437      -41.884628
 C         -44.283489     -125.883759      -41.127434
 H         -45.659740     -128.971405      -40.150345
 H         -45.487320     -127.518036      -39.000637
 H         -47.695347     -125.840469      -41.932621
 H         -47.242718     -125.499924      -40.366455
 H         -44.218082     -127.960754      -41.777351
 H         -43.364624     -127.818718      -40.379318
 H         -45.809078     -124.589569      -42.125439
 H         -45.561981     -126.026817      -42.872150
 H         -43.371422     -125.520935      -41.636608
 H         -44.259636     -125.407188      -40.092525
