20
 generated by VMD
 C          -1.714645      -13.008401        0.593374
 N          -1.064057      -13.871735        0.855302
 H          -3.674231      -14.699211        1.822603
 H          -4.602646      -14.367089        0.281904
 C          -4.562224      -15.003946        1.219993
 C          -5.843505      -14.769258        1.980442
 C          -4.442875      -16.539341        0.988275
 C          -7.096820      -15.292479        1.298639
 C          -5.659129      -17.098839        0.290707
 C          -6.980170      -16.773575        0.894660
 H          -6.034442      -13.682916        2.123950
 H          -5.723375      -15.290597        2.935933
 H          -3.595232      -16.755592        0.382392
 H          -4.190601      -17.074165        1.845237
 H          -7.332205      -14.731031        0.370827
 H          -7.977626      -15.157100        1.980011
 H          -5.564335      -18.178946        0.169620
 H          -5.721925      -16.763126       -0.779020
 H          -7.792702      -17.124615        0.248834
 H          -7.021404      -17.415478        1.795447
