20
 generated by VMD
 C          -5.972848      -20.968231        1.667274
 N          -5.853094      -21.882973        2.311323
 H          -4.953302      -18.584867       -1.233717
 H          -5.669623      -19.783579       -0.217388
 C          -5.705827      -19.362614       -1.214851
 C          -5.550514      -20.297440       -2.354938
 C          -7.128914      -18.736603       -1.244035
 C          -6.596984      -21.379431       -2.295437
 C          -8.225247      -19.848457       -1.242590
 C          -7.984638      -20.835161       -2.380869
 H          -4.522290      -20.801687       -2.340622
 H          -5.536763      -19.708693       -3.270601
 H          -7.303406      -18.190758       -0.334049
 H          -7.275553      -18.156189       -2.073106
 H          -6.422785      -21.976078       -1.368416
 H          -6.520483      -22.067797       -3.188306
 H          -9.197657      -19.324095       -1.403871
 H          -8.206749      -20.373318       -0.281052
 H          -8.788386      -21.578190       -2.422382
 H          -8.060096      -20.361538       -3.376535
