20
 generated by VMD
 C         -50.418495     -129.005188      -43.586620
 N         -50.821175     -129.544205      -44.546829
 H         -48.910568     -128.013000      -40.115463
 H         -49.860786     -128.509842      -42.804588
 C         -47.828152     -128.125443      -40.265121
 C         -47.066338     -129.423386      -40.115692
 C         -47.017643     -126.967957      -40.700539
 C         -46.101089     -129.655121      -41.252068
 C         -46.032349     -127.271851      -41.841770
 C         -45.183384     -128.514877      -41.694633
 H         -47.664589     -130.269897      -40.067719
 H         -46.570393     -129.322113      -39.105099
 H         -47.796383     -126.309158      -41.030117
 H         -46.604355     -126.652283      -39.713776
 H         -46.697220     -130.081284      -42.033581
 H         -45.560638     -130.577271      -40.983406
 H         -45.349308     -126.437462      -42.059242
 H         -46.529045     -127.270157      -42.808060
 H         -44.742298     -128.636703      -42.660824
 H         -44.412960     -128.321442      -41.005859
