20
 generated by VMD
 C         -77.314529     -202.944122      -69.399612
 N         -77.716583     -203.750656      -68.640793
 H         -75.342308     -201.925522      -67.298439
 H         -76.913620     -202.017441      -69.906082
 C         -74.913307     -201.489197      -68.209160
 C         -75.195221     -200.040970      -68.542206
 C         -73.954712     -202.343704      -68.950279
 C         -74.718651     -199.534103      -69.896393
 C         -73.118134     -201.649353      -69.949768
 C         -74.171524     -200.699982      -70.737206
 H         -74.589882     -199.461761      -67.808418
 H         -76.235771     -199.871506      -68.421349
 H         -73.191010     -202.749771      -68.198196
 H         -74.346260     -203.314224      -69.389412
 H         -73.853149     -198.788406      -69.751915
 H         -75.497696     -199.042526      -70.560112
 H         -72.724808     -202.444458      -70.578476
 H         -72.379150     -200.973755      -69.463272
 H         -73.686523     -200.167709      -71.577858
 H         -75.031578     -201.153168      -71.077652
