20
 generated by VMD
 C         -66.788719     -191.013580      -66.378311
 N         -67.804909     -190.506592      -66.654884
 H         -70.604820     -190.128250      -66.669930
 H         -65.776871     -191.265060      -65.984116
 C         -71.164902     -190.168091      -65.727425
 C         -72.247559     -191.174393      -65.537552
 C         -70.662239     -189.478149      -64.517563
 C         -73.240295     -190.706223      -64.417831
 C         -71.787529     -188.754425      -63.828411
 C         -72.726677     -189.907913      -63.342865
 H         -71.837158     -192.043320      -65.206947
 H         -72.815407     -191.478775      -66.440216
 H         -70.288704     -190.139160      -63.791893
 H         -69.955795     -188.667938      -64.723732
 H         -73.670578     -191.637482      -64.001755
 H         -74.016907     -190.012085      -64.902802
 H         -72.322479     -188.094345      -64.517708
 H         -71.497757     -188.227890      -62.973667
 H         -72.315132     -190.487823      -62.585812
 H         -73.615585     -189.383621      -62.838348
