20
 generated by VMD
 C         -78.073799     -204.166656      -69.799706
 N         -79.080368     -203.705887      -69.982834
 H         -75.614082     -202.411362      -67.458466
 H         -77.060600     -204.640976      -69.651299
 C         -75.398750     -202.470245      -68.590851
 C         -75.807068     -201.306839      -69.495781
 C         -74.269203     -203.362579      -69.072693
 C         -74.987862     -201.309677      -70.780510
 C         -73.120132     -202.522202      -69.403786
 C         -73.425957     -201.381027      -70.237961
 H         -75.654999     -200.365799      -68.984901
 H         -76.927231     -201.511169      -69.604836
 H         -74.043007     -204.205750      -68.424301
 H         -74.450943     -204.013809      -69.959129
 H         -75.092590     -200.427246      -71.398346
 H         -75.239807     -202.167236      -71.378220
 H         -72.487328     -203.289337      -69.885567
 H         -72.528442     -202.147964      -68.489189
 H         -73.402824     -200.436676      -69.497787
 H         -72.695351     -201.089737      -70.970589
