20
 generated by VMD
 C         -30.986231      -78.413979      -25.880037
 N         -31.320425      -77.514328      -25.179672
 H         -29.399364      -77.476227      -23.063545
 H         -30.615715      -79.318703      -26.310440
 C         -28.821619      -78.267998      -22.717405
 C         -27.383965      -78.303337      -22.965714
 C         -29.545666      -79.326424      -22.064352
 C         -26.588186      -79.429893      -22.337725
 C         -28.645533      -80.284866      -21.279749
 C         -27.396681      -80.713158      -22.053652
 H         -26.942108      -77.300316      -22.637863
 H         -27.173962      -78.195335      -24.051317
 H         -30.367920      -79.069077      -21.300528
 H         -30.116489      -79.875290      -22.774529
 H         -25.958929      -79.041779      -21.507534
 H         -25.932058      -79.754982      -23.149536
 H         -29.125614      -81.252563      -21.137560
 H         -28.222448      -79.877632      -20.255642
 H         -26.810730      -81.387680      -21.509443
 H         -27.753630      -81.199356      -22.943596
