20
 generated by VMD
 C          -1.664514      -14.097086        2.172134
 N          -1.897399      -13.665456        1.172660
 H          -3.692258      -17.075703        1.277049
 H          -4.245391      -17.156588       -0.389990
 C          -4.585711      -17.051435        0.647390
 C          -5.289234      -15.682221        0.695540
 C          -5.514143      -18.248177        0.894435
 C          -6.652215      -15.650270       -0.082384
 C          -6.779235      -18.137691        0.044819
 C          -7.533721      -16.835533        0.217812
 H          -4.689831      -14.806483        0.326115
 H          -5.545426      -15.532014        1.744278
 H          -4.979967      -19.244627        0.778238
 H          -5.980710      -18.190554        1.957568
 H          -6.440176      -15.616475       -1.163132
 H          -7.133324      -14.690310        0.191403
 H          -7.444789      -18.941406        0.305659
 H          -6.625038      -18.235886       -1.020408
 H          -8.362255      -16.854158       -0.482060
 H          -7.977598      -16.880276        1.211996
