20
 generated by VMD
 C         -53.384991     -147.577179      -45.521019
 N         -54.419670     -147.631897      -45.068096
 H         -54.632549     -147.652771      -48.169926
 H         -52.462963     -147.550674      -46.094284
 C         -54.404362     -146.753036      -48.779034
 C         -53.236504     -146.601120      -49.604576
 C         -55.041908     -145.592560      -48.119247
 C         -53.441422     -145.384064      -50.488640
 C         -55.140240     -144.396515      -49.021114
 C         -53.832985     -144.070419      -49.730549
 H         -53.100712     -147.490097      -50.327232
 H         -52.336788     -146.508316      -48.989967
 H         -56.021263     -145.854004      -47.710735
 H         -54.437481     -145.248871      -47.325554
 H         -54.118656     -145.493454      -51.366001
 H         -52.576614     -145.204071      -51.099094
 H         -55.572403     -143.440277      -48.384705
 H         -55.857658     -144.508636      -49.825939
 H         -54.217129     -143.261642      -50.373219
 H         -53.023300     -143.619431      -49.070229
