20
 generated by VMD
 C         -49.962273     -143.221283      -44.637444
 N         -49.154537     -143.425354      -45.489128
 H         -52.071751     -140.600983      -45.596531
 H         -50.800888     -143.203110      -43.964909
 C         -52.638084     -141.190506      -46.334362
 C         -52.039055     -141.457062      -47.706512
 C         -54.232410     -140.991867      -46.060432
 C         -53.067421     -142.193069      -48.644287
 C         -54.982643     -141.878510      -47.046623
 C         -54.474972     -141.663406      -48.444878
 H         -51.114571     -142.025757      -47.631718
 H         -51.905903     -140.482529      -48.040096
 H         -54.441044     -141.336029      -45.064327
 H         -54.464592     -140.001495      -46.277496
 H         -53.069153     -143.247467      -48.245323
 H         -52.948841     -142.250854      -49.717236
 H         -56.031845     -141.492432      -46.951366
 H         -55.039169     -142.936417      -46.681110
 H         -55.136436     -142.107880      -49.193268
 H         -54.493111     -140.634277      -48.869663
