20
 generated by VMD
 C         -68.345451     -185.207169      -67.337128
 N         -67.631561     -186.045425      -66.946976
 H         -69.804062     -185.180466      -64.565430
 H         -69.010178     -184.491119      -67.691338
 C         -69.708397     -185.475281      -63.574310
 C         -70.796059     -185.132507      -62.515823
 C         -68.503967     -186.323212      -63.214828
 C         -70.464569     -185.388519      -60.998749
 C         -68.312935     -186.500900      -61.746418
 C         -69.654114     -186.602051      -60.931808
 H         -71.610931     -185.724792      -62.917374
 H         -70.935349     -184.040771      -62.753819
 H         -68.825859     -187.337311      -63.600712
 H         -67.441582     -186.104004      -63.625904
 H         -71.368225     -185.533676      -60.399857
 H         -69.839546     -184.472900      -60.746868
 H         -67.651436     -185.688293      -61.327564
 H         -67.690102     -187.455139      -61.649437
 H         -70.078674     -187.624481      -61.116749
 H         -69.326134     -186.856064      -59.932812
