20
 generated by VMD
 C         -59.759373     -157.554977      -56.719749
 N         -59.191154     -158.577805      -56.685104
 H         -60.399426     -157.666306      -53.042831
 H         -60.286133     -156.619064      -56.970814
 C         -59.728188     -158.448563      -52.684921
 C         -58.366219     -158.176651      -52.267830
 C         -60.260654     -159.769470      -52.999550
 C         -57.844208     -159.229172      -51.309662
 C         -59.664597     -160.921173      -52.124798
 C         -58.062279     -160.722641      -51.840935
 H         -58.340744     -157.130783      -51.870331
 H         -57.668304     -158.042130      -53.110821
 H         -61.381306     -159.723770      -52.942074
 H         -59.929111     -160.014969      -53.973999
 H         -58.381004     -159.025620      -50.419594
 H         -56.735035     -159.249084      -51.163223
 H         -59.749977     -161.932404      -52.453663
 H         -60.202248     -160.707672      -51.182137
 H         -57.900539     -161.403656      -51.064896
 H         -57.508137     -160.870926      -52.740582
