20
 generated by VMD
 C         -43.235653     -120.894478      -35.492874
 N         -42.771450     -120.818878      -34.410545
 H         -44.217323     -121.495804      -38.696747
 H         -43.593494     -121.120995      -36.447811
 C         -44.163055     -120.422058      -38.748745
 C         -43.043098     -119.725121      -39.570362
 C         -45.282391     -119.618111      -38.206867
 C         -43.855690     -118.985458      -40.743690
 C         -45.917637     -118.798134      -39.324421
 C         -44.854733     -118.018036      -40.185841
 H         -42.411442     -120.476929      -39.960323
 H         -42.537830     -118.970871      -39.046871
 H         -46.079685     -120.079704      -37.693062
 H         -44.979664     -118.920372      -37.451904
 H         -44.478374     -119.587173      -41.482426
 H         -43.096069     -118.517792      -41.449791
 H         -46.648731     -118.056450      -38.977859
 H         -46.358025     -119.487503      -40.129128
 H         -45.225971     -117.414734      -41.051273
 H         -44.326637     -117.434158      -39.420475
