20
 generated by VMD
 C         -43.700165     -121.293022      -36.179794
 N         -43.657612     -120.542755      -35.301407
 H         -44.684589     -122.535583      -39.068859
 H         -43.766754     -122.035606      -37.039104
 C         -44.729252     -121.395340      -39.378567
 C         -43.402710     -120.850235      -39.753384
 C         -45.787605     -120.462410      -38.847893
 C         -43.414528     -119.335884      -40.142296
 C         -45.774475     -119.041702      -39.460606
 C         -44.329491     -118.461479      -39.308662
 H         -42.933094     -121.399536      -40.587105
 H         -42.903954     -120.917847      -38.816582
 H         -46.622601     -121.115555      -39.068996
 H         -45.724293     -120.370186      -37.810665
 H         -43.933628     -119.421844      -41.137218
 H         -42.408104     -118.867859      -40.293354
 H         -46.582329     -118.401672      -39.059486
 H         -46.030239     -119.235161      -40.566990
 H         -44.367306     -117.404999      -39.700157
 H         -43.850872     -118.482002      -38.280930
