20
 generated by VMD
 C         -61.510475     -154.999954      -53.590645
 N         -62.148056     -155.482376      -54.405907
 H         -58.382767     -155.065872      -52.095795
 H         -60.892685     -154.598984      -52.827503
 C         -57.407623     -154.978561      -51.608681
 C         -57.348995     -154.378220      -50.229755
 C         -56.128342     -154.923233      -52.418095
 C         -56.056671     -154.811020      -49.531784
 C         -54.903282     -155.396484      -51.666241
 C         -54.800743     -154.612930      -50.369976
 H         -58.315708     -154.653610      -49.643101
 H         -57.294758     -153.287231      -50.287460
 H         -56.525234     -155.555496      -53.247154
 H         -55.900368     -153.935837      -52.874172
 H         -56.149227     -155.836304      -49.211887
 H         -55.905891     -154.207230      -48.587646
 H         -54.039402     -155.096680      -52.336567
 H         -54.822956     -156.439026      -51.485622
 H         -54.031437     -154.990997      -49.629505
 H         -54.688602     -153.589539      -50.548752
