20
 generated by VMD
 C         -31.078192      -74.879623      -21.745522
 N         -31.585207      -75.958694      -21.766693
 H         -28.642139      -76.201813      -20.843468
 H         -30.436951      -73.892731      -21.854607
 C         -27.586040      -76.150276      -21.153189
 C         -26.763706      -77.150093      -21.965622
 C         -26.912828      -74.980865      -20.667557
 C         -25.691732      -76.511574      -22.879377
 C         -25.952108      -74.356155      -21.659111
 C         -24.962755      -75.347733      -22.182562
 H         -27.635399      -77.772972      -22.401033
 H         -26.248150      -77.915520      -21.350681
 H         -27.794298      -74.225929      -20.475763
 H         -26.365227      -75.172142      -19.667873
 H         -26.223211      -76.083488      -23.779697
 H         -25.003515      -77.292747      -23.251558
 H         -25.338743      -73.608337      -21.109707
 H         -26.375896      -73.716385      -22.515903
 H         -24.410809      -74.780151      -22.964849
 H         -24.082705      -75.655388      -21.582661
