20
 generated by VMD
 C         -76.988487     -203.499878      -66.809860
 N         -77.766525     -204.113037      -66.189857
 H         -75.330772     -200.647522      -68.320465
 H         -76.189598     -202.875320      -67.163048
 C         -74.782455     -199.977386      -68.919594
 C         -74.843224     -198.539917      -68.668961
 C         -73.738419     -200.690216      -69.777809
 C         -73.443466     -197.930313      -69.014091
 C         -72.880539     -199.805893      -70.733871
 C         -73.029388     -198.247269      -70.441856
 H         -75.220673     -198.146194      -67.711334
 H         -75.544205     -198.236053      -69.482178
 H         -73.013596     -201.302902      -69.257950
 H         -74.313652     -201.414490      -70.442841
 H         -72.678169     -198.269592      -68.307465
 H         -73.520889     -196.866852      -69.013092
 H         -73.081116     -200.011612      -71.783966
 H         -71.855278     -200.156067      -70.630257
 H         -72.174767     -197.675293      -70.526581
 H         -73.840569     -197.799530      -71.021149
