20
 generated by VMD
 C         -49.649124     -141.545532      -45.614006
 N         -49.627178     -142.446289      -44.929131
 H         -51.496540     -138.678329      -46.305256
 H         -49.556107     -140.650299      -46.234604
 C         -52.192924     -139.535599      -46.514072
 C         -52.808220     -139.640320      -47.891243
 C         -52.975830     -140.294250      -45.382927
 C         -52.970413     -141.121597      -48.224197
 C         -53.437901     -141.774017      -45.734013
 C         -53.986427     -141.750168      -47.136845
 H         -52.156399     -139.080795      -48.627682
 H         -53.845657     -139.278610      -47.971268
 H         -52.325069     -140.492737      -44.552837
 H         -53.869278     -139.771027      -45.206596
 H         -52.000080     -141.785034      -48.232384
 H         -53.359020     -141.031021      -49.324982
 H         -54.263569     -142.046356      -45.104736
 H         -52.598339     -142.405029      -45.555332
 H         -54.160625     -142.827240      -47.559277
 H         -54.960358     -141.141281      -47.116474
