20
 generated by VMD
 C         -56.273724     -149.919937      -47.731968
 N         -57.339485     -150.293243      -47.457432
 H         -53.259010     -147.943832      -47.471756
 H         -55.248272     -149.702759      -47.885273
 C         -53.639744     -147.730743      -48.421761
 C         -53.207588     -148.525803      -49.525738
 C         -54.553467     -146.630234      -48.591728
 C         -54.187260     -148.560974      -50.627720
 C         -55.542583     -146.680984      -49.685669
 C         -54.889271     -147.174240      -50.945969
 H         -52.987564     -149.565918      -49.434998
 H         -52.336742     -147.977264      -49.985287
 H         -54.988255     -146.562836      -47.671719
 H         -53.910774     -145.823181      -48.898720
 H         -54.993290     -149.293518      -50.518124
 H         -53.616043     -148.834396      -51.504715
 H         -56.028160     -145.727295      -49.820084
 H         -56.249531     -147.556885      -49.409492
 H         -55.587261     -147.203201      -51.744953
 H         -54.155304     -146.429718      -51.260731
