20
 generated by VMD
 C         -53.101379     -147.394974      -45.547398
 N         -54.254536     -147.452759      -45.265312
 H         -54.501671     -147.632416      -48.013817
 H         -52.027546     -147.453613      -45.819424
 C         -54.403198     -146.674301      -48.590508
 C         -53.236275     -146.517761      -49.538345
 C         -55.052284     -145.422424      -48.011856
 C         -53.449726     -145.299271      -50.357620
 C         -55.166245     -144.242523      -49.007858
 C         -53.877491     -144.005264      -49.673595
 H         -53.193108     -147.447632      -50.211342
 H         -52.365978     -146.516388      -48.918545
 H         -56.054924     -145.910126      -47.918938
 H         -54.839851     -145.118546      -47.029190
 H         -54.286179     -145.508011      -51.110851
 H         -52.457558     -145.209122      -50.798447
 H         -55.416718     -143.228043      -48.392761
 H         -55.959831     -144.406189      -49.738468
 H         -54.025276     -143.351120      -50.539978
 H         -53.044556     -143.562057      -49.095467
