20
 generated by VMD
 C         -23.109589      -54.513676      -15.014219
 N         -23.828989      -53.864281      -15.674661
 H         -20.237318      -54.676796      -15.470884
 H         -22.688931      -55.407497      -14.266185
 C         -19.717241      -55.306774      -14.651362
 C         -19.172173      -54.658875      -13.475901
 C         -19.004084      -56.516953      -15.215366
 C         -18.515005      -55.540752      -12.407372
 C         -18.721441      -57.405437      -14.021036
 C         -17.704115      -56.661636      -13.045598
 H         -19.813360      -54.017559      -12.938700
 H         -18.443110      -53.989925      -13.893927
 H         -19.536940      -56.978512      -16.025358
 H         -18.114714      -56.203205      -15.726946
 H         -19.278502      -55.981659      -11.721931
 H         -17.777420      -54.854603      -11.934118
 H         -18.241255      -58.381958      -14.398458
 H         -19.664579      -57.645557      -13.517207
 H         -17.347736      -57.352016      -12.285653
 H         -16.901590      -56.163174      -13.629257
