20
 generated by VMD
 C         -13.846214      -43.625874       -6.725848
 N         -13.336468      -43.784416       -5.731876
 H         -15.098435      -45.084064       -9.000630
 H         -14.303763      -43.988094      -10.197373
 C         -15.237379      -44.497662       -9.882784
 C         -16.347702      -43.518459       -9.615644
 C         -15.535975      -45.484062      -11.023928
 C         -16.873325      -42.841652      -10.887929
 C         -15.983219      -44.754761      -12.304266
 C         -17.219191      -43.885342      -11.983909
 H         -16.137751      -42.755600       -8.897925
 H         -17.133703      -44.162384       -9.187298
 H         -14.628938      -46.002079      -11.184036
 H         -16.357344      -46.090084      -10.664205
 H         -16.123087      -42.112762      -11.247816
 H         -17.797441      -42.262280      -10.654906
 H         -16.335705      -45.459618      -13.022716
 H         -15.178774      -44.125233      -12.782636
 H         -17.597969      -43.484322      -12.888425
 H         -18.027340      -44.505737      -11.572837
