20
 generated by VMD
 C         -50.041077     -130.578720      -45.833477
 N         -50.893448     -129.986313      -45.424049
 H         -47.533234     -132.270355      -44.391758
 H         -49.354752     -131.285995      -46.208641
 C         -48.055916     -132.183075      -43.425739
 C         -48.508812     -133.409195      -42.810413
 C         -48.403786     -130.876068      -42.745983
 C         -47.961945     -133.451019      -41.376698
 C         -47.772102     -130.875076      -41.419220
 C         -48.172325     -132.109665      -40.583946
 H         -47.950294     -134.247681      -43.238708
 H         -49.582706     -133.512848      -42.999523
 H         -48.070343     -130.052673      -43.289944
 H         -49.521637     -130.737427      -42.788956
 H         -46.877911     -133.590210      -41.296619
 H         -48.326237     -134.228851      -40.690914
 H         -48.084290     -129.892105      -40.991413
 H         -46.726475     -130.741165      -41.455463
 H         -47.473083     -132.145935      -39.768089
 H         -49.218735     -131.869171      -40.296028
