20
 generated by VMD
 C         -79.726768     -206.319458      -73.243561
 N         -79.421776     -206.502625      -74.314262
 H         -78.172661     -205.247803      -69.718811
 H         -79.712364     -206.098892      -72.147926
 C         -77.333336     -205.765762      -70.162178
 C         -76.478096     -205.041641      -71.143646
 C         -76.985443     -207.171997      -69.790627
 C         -75.035805     -205.038605      -70.619469
 C         -75.565819     -207.105103      -69.176041
 C         -74.605583     -206.386246      -70.139336
 H         -76.606079     -203.959930      -71.158623
 H         -76.733070     -205.392197      -72.207932
 H         -77.727654     -207.362640      -69.029900
 H         -77.131149     -207.919235      -70.651909
 H         -74.961441     -204.428238      -69.759766
 H         -74.313828     -204.735352      -71.353905
 H         -75.247963     -208.171982      -68.889511
 H         -75.513016     -206.513397      -68.323372
 H         -73.595749     -206.427368      -69.674133
 H         -74.632919     -206.934128      -71.095161
