20
 generated by VMD
 C         -70.564339     -196.911667      -66.240921
 N         -69.915695     -196.086166      -65.793755
 H         -72.510628     -195.093246      -64.711464
 H         -71.305237     -197.535736      -66.639221
 C         -72.770927     -194.593338      -65.667030
 C         -72.426018     -193.138474      -66.037148
 C         -73.877998     -195.228546      -66.349838
 C         -73.317627     -192.631775      -67.181419
 C         -73.663582     -195.137024      -67.901283
 C         -73.380356     -193.715790      -68.355713
 H         -71.347992     -193.152695      -66.292694
 H         -72.667458     -192.565125      -65.148468
 H         -73.899185     -196.288559      -66.243599
 H         -74.858253     -194.747910      -66.202202
 H         -72.983475     -191.649460      -67.545700
 H         -74.378220     -192.494781      -66.815369
 H         -74.556320     -195.561279      -68.377144
 H         -72.773880     -195.769211      -68.143494
 H         -72.461647     -193.656860      -69.012535
 H         -74.221153     -193.514282      -68.896408
