20
 generated by VMD
 C         -31.091846      -75.676430      -21.460451
 N         -32.116344      -75.230896      -21.200043
 H         -27.956852      -74.862030      -20.414326
 H         -30.455399      -76.062927      -22.144258
 C         -26.898930      -74.993195      -20.484161
 C         -26.410295      -76.229813      -21.284487
 C         -25.766104      -73.955223      -20.334482
 C         -26.010338      -75.787003      -22.735889
 C         -25.365326      -73.504669      -21.805540
 C         -24.893997      -74.676079      -22.646101
 H         -27.284193      -77.073074      -21.146143
 H         -25.563929      -76.789253      -20.818787
 H         -26.237839      -73.210480      -19.868931
 H         -24.889956      -74.387894      -19.848761
 H         -26.876268      -75.387566      -23.264767
 H         -25.595640      -76.580597      -23.378960
 H         -24.514870      -72.842674      -21.681692
 H         -26.032213      -72.855827      -22.339312
 H         -24.664011      -74.130402      -23.578753
 H         -24.037855      -75.135170      -22.124762
