20
 generated by VMD
 C         -10.911215      -33.679211       -8.581604
 N         -10.997436      -32.894241       -9.394274
 H         -11.640737      -36.967052       -8.093467
 H         -12.112867      -36.086205       -6.633140
 C         -12.354980      -36.975204       -7.261019
 C         -11.963092      -38.182476       -6.447540
 C         -13.846267      -36.949066       -7.530175
 C         -12.871123      -38.518394       -5.283413
 C         -14.739316      -37.188633       -6.339595
 C         -14.355573      -38.479343       -5.657640
 H         -10.919497      -38.128910       -6.115263
 H         -12.021479      -39.072777       -7.065417
 H         -14.145974      -36.056534       -8.081244
 H         -14.063403      -37.774437       -8.272008
 H         -12.704280      -37.817776       -4.458351
 H         -12.555490      -39.496471       -4.946297
 H         -15.772895      -37.140263       -6.587082
 H         -14.515239      -36.312733       -5.631736
 H         -14.893487      -38.554203       -4.685854
 H         -14.676777      -39.252262       -6.327021
