20
 generated by VMD
 C         -30.869549      -78.262291      -26.077066
 N         -31.790493      -77.551926      -25.787170
 H         -29.423561      -77.798264      -23.124735
 H         -30.111599      -78.839294      -26.670364
 C         -28.861855      -78.664444      -22.870161
 C         -27.411167      -78.875877      -23.102024
 C         -29.701040      -79.860710      -22.345428
 C         -26.703724      -79.762131      -22.048632
 C         -28.768829      -80.629265      -21.279114
 C         -27.501844      -81.105080      -21.899973
 H         -26.890106      -77.942924      -23.202419
 H         -27.254835      -79.331245      -24.122686
 H         -30.659058      -79.542679      -21.909239
 H         -29.913042      -80.610268      -23.214533
 H         -26.655222      -79.292191      -21.050137
 H         -25.725208      -79.817726      -22.466127
 H         -29.404936      -81.543709      -20.981926
 H         -28.567770      -80.045914      -20.308756
 H         -26.944403      -81.784775      -21.250961
 H         -27.724075      -81.568329      -22.778997
