20
 generated by VMD
 C         -37.071796      -98.041573      -26.113457
 N         -35.978855      -98.420044      -26.262764
 H         -36.394833      -95.379845      -28.669611
 H         -38.009392      -97.659683      -25.874048
 C         -35.521648      -95.387833      -29.276869
 C         -35.743782      -96.321663      -30.439325
 C         -34.312965      -94.663147      -29.103878
 C         -35.253567      -95.631721      -31.675867
 C         -33.860157      -93.931168      -30.475489
 C         -33.791409      -94.919876      -31.652111
 H         -36.767376      -96.627792      -30.496567
 H         -35.078667      -97.174652      -30.201923
 H         -34.297432      -93.897247      -28.368231
 H         -33.515236      -95.279503      -28.704359
 H         -35.900452      -94.839386      -31.898142
 H         -35.251339      -96.232605      -32.603947
 H         -32.944492      -93.409470      -30.208065
 H         -34.586292      -93.134827      -30.630432
 H         -33.485134      -94.295235      -32.560108
 H         -32.876400      -95.595222      -31.433245
