20
 generated by VMD
 C         -69.224144     -194.782974      -65.229225
 N         -68.484825     -193.949570      -64.848763
 H         -71.497253     -193.663620      -68.307266
 H         -70.012085     -195.351334      -65.815186
 C         -72.044044     -193.728531      -67.330475
 C         -71.627075     -192.516068      -66.526131
 C         -73.345749     -194.307724      -67.147583
 C         -72.623032     -192.160782      -65.401749
 C         -74.361214     -193.123459      -67.066696
 C         -74.065208     -192.142181      -65.990784
 H         -71.493248     -191.612411      -67.159904
 H         -70.820839     -192.734619      -66.012840
 H         -73.542366     -194.864716      -68.098656
 H         -73.311409     -194.870438      -66.231133
 H         -72.422058     -191.189880      -65.044914
 H         -72.592964     -192.833099      -64.507347
 H         -75.348709     -193.610977      -66.848785
 H         -74.478485     -192.557312      -67.972862
 H         -74.033012     -191.028442      -66.384895
 H         -74.776329     -192.171722      -65.244469
