20
 generated by VMD
 C         -40.596001     -100.926888      -32.527054
 N         -41.270306     -100.967903      -31.558731
 H         -37.928497     -103.671211      -32.287449
 H         -39.751637     -100.979431      -33.195480
 C         -37.362061     -102.754913      -31.942062
 C         -36.179634     -102.480911      -32.769577
 C         -37.175171     -102.586639      -30.534716
 C         -35.233730     -101.383461      -32.424503
 C         -36.433529     -101.297646      -30.239174
 C         -35.111019     -101.280403      -30.867847
 H         -36.536724     -102.318062      -33.812416
 H         -35.570225     -103.384331      -32.747032
 H         -38.193985     -102.455048      -30.080587
 H         -36.787796     -103.569695      -30.141859
 H         -35.558800     -100.440559      -32.804905
 H         -34.205513     -101.484077      -32.754318
 H         -36.386612     -101.261177      -29.157440
 H         -36.889149     -100.420563      -30.611790
 H         -34.466774     -100.374580      -30.654301
 H         -34.487644     -102.039406      -30.395494
