20
 generated by VMD
 C         -70.169197     -198.247437      -64.305496
 N         -69.906799     -198.116486      -65.431534
 H         -73.007454     -196.785385      -66.399979
 H         -70.585426     -198.508911      -63.334724
 C         -73.492599     -195.851074      -66.755936
 C         -73.186867     -194.438522      -66.461250
 C         -74.485435     -196.062439      -67.949814
 C         -73.081444     -193.453049      -67.590164
 C         -74.833466     -194.844711      -68.833946
 C         -73.627121     -193.912827      -68.975113
 H         -72.298378     -194.475708      -65.831520
 H         -73.912285     -194.107590      -65.728333
 H         -73.906456     -196.779694      -68.546318
 H         -75.376213     -196.633682      -67.585945
 H         -72.042274     -193.152618      -67.742081
 H         -73.566612     -192.494644      -67.285477
 H         -75.719147     -194.332642      -68.400307
 H         -75.056015     -195.144302      -69.863831
 H         -72.919975     -194.544144      -69.403969
 H         -73.703499     -193.105484      -69.776772
