20
 generated by VMD
 C         -80.664078     -205.712143      -72.027634
 N         -79.951500     -206.593582      -71.955956
 H         -76.921356     -204.383957      -72.068138
 H         -81.463211     -205.051422      -71.948166
 C         -76.084488     -204.621216      -71.410248
 C         -74.993095     -203.552795      -71.097649
 C         -76.188988     -205.928574      -70.655411
 C         -74.286049     -203.678375      -69.765701
 C         -75.635788     -205.799835      -69.248589
 C         -74.206917     -205.203400      -69.304039
 H         -75.436638     -202.549576      -71.177994
 H         -74.190239     -203.627686      -71.843132
 H         -77.227531     -206.389877      -70.531349
 H         -75.517845     -206.661896      -71.274925
 H         -74.607391     -203.115585      -68.936035
 H         -73.296928     -203.239288      -69.789597
 H         -75.740868     -206.833694      -68.755463
 H         -76.227013     -205.074066      -68.644913
 H         -73.821686     -205.223404      -68.251328
 H         -73.421692     -205.679703      -69.858864
