20
 generated by VMD
 C         -25.975811      -71.834686      -17.237686
 N         -26.693218      -72.517349      -16.627975
 H         -24.262060      -69.118744      -18.974703
 H         -25.205599      -71.311607      -17.836775
 C         -24.825611      -69.685333      -19.664707
 C         -24.067030      -70.780815      -20.381498
 C         -25.758057      -68.762901      -20.485554
 C         -25.052042      -71.517868      -21.098661
 C         -26.839132      -69.598755      -21.279831
 C         -25.975899      -70.736511      -21.955334
 H         -23.569717      -71.427414      -19.619150
 H         -23.197407      -70.372032      -20.906202
 H         -26.215990      -68.022308      -19.869394
 H         -25.138371      -68.204185      -21.147692
 H         -25.816252      -72.109802      -20.534683
 H         -24.552872      -72.214424      -21.787342
 H         -27.410624      -68.893448      -21.865910
 H         -27.454447      -70.047836      -20.547453
 H         -26.823112      -71.368248      -22.330042
 H         -25.429714      -70.493668      -22.887653
