20
 generated by VMD
 C         -38.109047     -113.986465      -35.446842
 N         -38.427505     -115.083397      -35.283550
 H         -41.400394     -114.902084      -36.353603
 H         -37.983574     -112.892227      -35.336948
 C         -42.446281     -114.757729      -36.672123
 C         -42.698330     -115.014542      -38.103535
 C         -43.550106     -114.670158      -35.625374
 C         -43.969810     -115.637009      -38.497631
 C         -44.669300     -115.663475      -35.909081
 C         -45.117329     -115.445374      -37.427212
 H         -41.873562     -115.643784      -38.441261
 H         -42.455013     -114.063454      -38.679436
 H         -43.167583     -115.043427      -34.663647
 H         -43.996059     -113.670067      -35.594044
 H         -43.903427     -116.700867      -38.688168
 H         -44.400917     -115.187508      -39.394466
 H         -45.598019     -115.424919      -35.364811
 H         -44.291481     -116.678596      -35.665592
 H         -46.019184     -115.951675      -37.600990
 H         -45.562355     -114.388283      -37.583660
