20
 generated by VMD
 C          -2.112088      -17.827919        2.192340
 N          -1.666630      -17.039095        2.850850
 H          -5.345006      -17.619371        0.872710
 H          -5.027850      -18.884956       -0.274299
 C          -5.788865      -18.161295        0.011015
 C          -6.129831      -17.066227       -0.901116
 C          -7.060179      -18.918226        0.493357
 C          -6.793169      -17.703623       -2.100816
 C          -7.910724      -19.477942       -0.656054
 C          -8.101504      -18.380304       -1.676751
 H          -5.211293      -16.604080       -1.174198
 H          -6.774762      -16.218527       -0.557527
 H          -6.772675      -19.722431        1.201750
 H          -7.652858      -18.351784        1.183619
 H          -6.132555      -18.394365       -2.574215
 H          -6.895023      -16.980028       -2.937690
 H          -8.905560      -19.891506       -0.370537
 H          -7.344304      -20.380999       -1.060824
 H          -8.579543      -18.758047       -2.606040
 H          -8.809853      -17.659962       -1.255768
