20
 generated by VMD
 C         -22.581356      -55.279629      -17.266182
 N         -23.069681      -54.572586      -18.006310
 H         -20.079979      -55.939899      -14.353542
 H         -22.301973      -55.977512      -16.389595
 C         -20.105183      -57.092339      -14.245760
 C         -20.788868      -57.638111      -12.993584
 C         -19.150433      -57.789188      -15.176342
 C         -21.011478      -59.127338      -13.101391
 C         -19.408087      -59.307766      -15.222704
 C         -19.673460      -59.823017      -13.733841
 H         -21.595400      -57.003078      -12.651011
 H         -20.056997      -57.409126      -12.183587
 H         -19.147726      -57.317795      -16.224842
 H         -18.174099      -57.515347      -14.780038
 H         -21.783096      -59.235027      -13.912364
 H         -21.342184      -59.737755      -12.227793
 H         -18.519682      -59.799652      -15.684155
 H         -20.268366      -59.636185      -15.801275
 H         -19.818457      -60.903152      -13.601927
 H         -18.840982      -59.573330      -13.008699
