20
 generated by VMD
 C          -4.477533      -20.957222        2.486223
 N          -5.002468      -20.008499        2.735720
 H          -5.143773      -19.240957       -0.213354
 H          -6.062714      -20.742182       -0.448797
 C          -5.932680      -19.695553       -0.789805
 C          -5.548521      -19.759865       -2.282263
 C          -7.240177      -18.862219       -0.647191
 C          -6.715044      -20.543526       -2.951713
 C          -8.374804      -19.723906       -1.170248
 C          -8.133241      -20.086800       -2.620743
 H          -4.674558      -20.312704       -2.444681
 H          -5.543164      -18.777491       -2.766847
 H          -7.317757      -18.725803        0.483763
 H          -7.044143      -17.925177       -1.212511
 H          -6.640285      -21.628927       -2.785250
 H          -6.511231      -20.415827       -4.052972
 H          -9.307055      -19.132757       -1.141286
 H          -8.522011      -20.602951       -0.553503
 H          -8.757340      -20.895468       -2.920981
 H          -8.399147      -19.179335       -3.145730
