20
 generated by VMD
 C         -41.904808     -101.930786      -33.681210
 N         -40.789268     -101.866127      -33.976917
 H         -39.105167     -103.941414      -32.624733
 H         -42.976734     -101.782761      -33.452034
 C         -38.144299     -103.765549      -32.179611
 C         -36.989746     -103.487831      -33.200195
 C         -37.890034     -104.400925      -30.903734
 C         -35.814617     -102.975174      -32.409458
 C         -36.771458     -103.695374      -30.136646
 C         -35.566772     -103.746826      -31.052040
 H         -37.146118     -102.704521      -33.933731
 H         -36.785725     -104.336357      -33.814495
 H         -38.848103     -104.312027      -30.242880
 H         -37.732925     -105.433220      -30.973757
 H         -35.843349     -101.854088      -32.213055
 H         -34.953087     -103.130951      -33.101776
 H         -36.630085     -104.218193      -29.232368
 H         -37.014698     -102.613426      -29.852610
 H         -34.672661     -103.307251      -30.620316
 H         -35.447144     -104.850723      -31.191183
