20
 generated by VMD
 C         -10.565857      -33.050865       -8.861346
 N         -11.022145      -33.928181       -9.350428
 H         -12.958394      -33.979122       -6.477805
 H         -13.124228      -34.573612       -4.772026
 C         -13.010411      -34.908260       -5.796580
 C         -11.740442      -35.689678       -6.067716
 C         -14.219269      -35.796440       -6.228368
 C         -11.669788      -37.101910       -5.489709
 C         -14.190212      -37.254852       -5.827621
 C         -12.847611      -37.903168       -6.165774
 H         -10.898910      -35.174145       -5.678212
 H         -11.575989      -35.776772       -7.146059
 H         -15.072772      -35.302010       -5.778821
 H         -14.437455      -35.715313       -7.312049
 H         -11.774336      -37.101406       -4.424892
 H         -10.751593      -37.585815       -5.834959
 H         -15.016179      -37.850105       -6.303429
 H         -14.318903      -37.316540       -4.793339
 H         -12.743672      -38.937500       -5.838648
 H         -12.726923      -37.974377       -7.302391
