20
 generated by VMD
 C         -40.086704     -105.732254      -36.985962
 N         -40.139111     -106.713165      -37.592735
 H         -38.770256     -107.758110      -34.369053
 H         -39.967159     -104.776360      -36.534893
 C         -39.241554     -108.718948      -34.169605
 C         -38.433483     -109.316490      -33.166786
 C         -40.593933     -108.957352      -34.495968
 C         -39.206085     -109.659996      -31.918285
 C         -41.400635     -109.276215      -33.235100
 C         -40.656773     -110.160347      -32.261108
 H         -37.569744     -108.664978      -32.849625
 H         -37.861534     -110.242554      -33.560474
 H         -40.972992     -108.177032      -35.149620
 H         -40.684555     -109.861877      -35.123890
 H         -39.445400     -108.894287      -31.225912
 H         -38.636139     -110.308754      -31.365517
 H         -42.440224     -109.568283      -33.423565
 H         -41.658627     -108.295395      -32.707520
 H         -41.208355     -110.336624      -31.345125
 H         -40.543179     -111.221390      -32.806618
