20
 generated by VMD
 C          -1.515442       -8.863603        0.187380
 N          -2.526381       -9.179392       -0.129445
 H          -2.452330      -10.420392        2.737815
 H          -2.057364      -11.701423        3.811455
 C          -2.809342      -11.432347        3.043598
 C          -2.861939      -12.437863        1.960698
 C          -4.214242      -11.185440        3.659920
 C          -3.274377      -13.734556        2.589645
 C          -4.666374      -12.494677        4.254599
 C          -4.625751      -13.683853        3.346455
 H          -1.870743      -12.482069        1.538173
 H          -3.520328      -12.064269        1.168645
 H          -4.045422      -10.475356        4.527931
 H          -4.954627      -10.738372        2.881125
 H          -2.453304      -14.023312        3.287239
 H          -3.218742      -14.447430        1.785054
 H          -5.661832      -12.373067        4.605638
 H          -4.055747      -12.672198        5.109455
 H          -4.813103      -14.624289        3.869973
 H          -5.306652      -13.570066        2.524787
