20
 generated by VMD
 C         -16.697233      -47.763340       -7.273717
 N         -16.321976      -46.703979       -7.220040
 H         -16.829399      -48.482941      -10.303327
 H         -15.546667      -48.279663      -11.381288
 C         -16.492760      -47.836712      -11.076218
 C         -16.227140      -46.396992      -10.611129
 C         -17.443262      -47.856926      -12.251999
 C         -15.805381      -45.463051      -11.675593
 C         -17.069149      -46.853474      -13.368603
 C         -16.847395      -45.410736      -12.803978
 H         -15.392894      -46.425377       -9.865964
 H         -17.108925      -45.974995      -10.095749
 H         -17.373011      -48.853531      -12.687479
 H         -18.470261      -47.678890      -11.827412
 H         -14.864984      -45.828842      -12.152613
 H         -15.673516      -44.451168      -11.268353
 H         -17.780455      -46.853119      -14.213395
 H         -16.093801      -47.223743      -13.735802
 H         -16.393950      -44.841385      -13.608158
 H         -17.797714      -45.016201      -12.393820
