20
 generated by VMD
 C         -14.113952      -28.801901       -7.448930
 N         -13.311655      -28.965452       -8.210980
 H         -11.702859      -30.460638       -4.776186
 H         -10.379601      -29.842236       -3.933343
 C         -10.758452      -30.830139       -4.329256
 C          -9.929629      -31.383734       -5.503340
 C         -10.993338      -31.807289       -3.195312
 C          -8.638378      -32.161327       -5.043086
 C          -9.728189      -32.536713       -2.724405
 C          -8.915107      -33.132095       -3.808325
 H          -9.767174      -30.524538       -6.197992
 H         -10.474679      -32.135422       -5.982357
 H         -11.485965      -31.353798       -2.361549
 H         -11.672601      -32.605247       -3.483795
 H          -7.833787      -31.508795       -4.729475
 H          -8.243200      -32.742920       -5.907519
 H         -10.058903      -33.338108       -2.051111
 H          -9.193022      -31.795156       -2.107103
 H          -7.988016      -33.553383       -3.390181
 H          -9.400324      -34.090057       -4.208042
