20
 generated by VMD
 C         -41.074375     -104.152580      -35.852257
 N         -41.916145     -104.887642      -36.127705
 H         -38.170883     -103.859085      -33.304314
 H         -40.174034     -103.571091      -35.602936
 C         -38.142059     -104.862267      -32.985104
 C         -36.873100     -105.223602      -32.366127
 C         -39.215218     -105.930954      -33.053902
 C         -37.095840     -106.253502      -31.208271
 C         -39.266224     -107.172264      -32.051369
 C         -37.860321     -107.554543      -31.655016
 H         -36.478821     -104.340050      -31.953825
 H         -36.250225     -105.604988      -33.148060
 H         -40.173828     -105.484138      -33.024639
 H         -39.118778     -106.382629      -34.117508
 H         -37.647976     -105.824585      -30.284353
 H         -36.080917     -106.377357      -30.729673
 H         -40.002285     -107.829643      -32.336021
 H         -39.680660     -106.629219      -31.184313
 H         -37.989716     -108.268463      -30.753843
 H         -37.298832     -108.100777      -32.367245
