20
 generated by VMD
 C         -68.660515     -193.692688      -64.652855
 N         -68.440712     -194.406754      -65.502724
 H         -70.956703     -193.388474      -67.713776
 H         -68.973549     -193.088959      -63.811279
 C         -71.805672     -192.993164      -67.196815
 C         -71.638741     -191.762192      -66.364998
 C         -73.060806     -193.701065      -67.252518
 C         -72.926376     -191.077454      -65.944038
 C         -74.092911     -193.301773      -66.121834
 C         -73.799896     -192.052307      -65.244781
 H         -71.059006     -190.994125      -66.959717
 H         -71.029404     -192.127625      -65.445419
 H         -73.555222     -193.311874      -68.140739
 H         -72.915825     -194.842941      -67.167419
 H         -73.467468     -190.624146      -66.854462
 H         -72.648239     -190.315842      -65.167351
 H         -74.072838     -194.146988      -65.391029
 H         -75.049751     -193.255905      -66.598122
 H         -74.745689     -191.667450      -65.006439
 H         -73.206703     -192.412628      -64.300362
