20
 generated by VMD
 C         -19.908915      -50.405071      -10.198670
 N         -20.186567      -51.235310       -9.455571
 H         -17.234276      -49.030590      -10.045642
 H         -19.378464      -49.752029      -10.997814
 C         -17.167316      -49.068073      -11.162658
 C         -15.942231      -49.851692      -11.605568
 C         -17.666294      -47.940498      -11.983924
 C         -16.277254      -50.322968      -13.030029
 C         -17.688457      -48.257561      -13.438910
 C         -16.508146      -49.115364      -13.962733
 H         -15.774081      -50.643082      -10.932875
 H         -15.021445      -49.235329      -11.649913
 H         -18.663595      -47.696793      -11.627818
 H         -16.991947      -47.123600      -11.835545
 H         -17.132215      -50.998505      -13.100984
 H         -15.409223      -50.916927      -13.382697
 H         -17.785025      -47.359867      -14.097831
 H         -18.659502      -48.799950      -13.654205
 H         -16.777674      -49.607159      -14.902456
 H         -15.622687      -48.545685      -14.172591
