20
 generated by VMD
 C         -28.342463      -86.999184      -27.057320
 N         -27.592768      -87.033607      -26.194805
 H         -31.081997      -88.174431      -25.213257
 H         -28.999760      -87.070000      -27.938765
 C         -32.038902      -88.158485      -25.710417
 C         -33.299076      -88.345207      -24.802946
 C         -32.305012      -88.327202      -27.163937
 C         -34.599621      -87.689728      -25.306765
 C         -33.507538      -87.433708      -27.542795
 C         -34.762917      -87.905548      -26.772749
 H         -32.928059      -88.072472      -23.778164
 H         -33.570938      -89.370399      -24.480232
 H         -31.395803      -87.941055      -27.709478
 H         -32.412701      -89.399742      -27.464996
 H         -34.530022      -86.600601      -25.151802
 H         -35.448845      -88.224136      -24.816586
 H         -33.610722      -87.464554      -28.631872
 H         -33.470974      -86.368729      -27.165867
 H         -35.623920      -87.374908      -27.227474
 H         -34.885006      -88.993599      -27.153732
