20
 generated by VMD
 C          -1.638265       -8.479008        0.300507
 N          -2.418599       -7.715711        0.283337
 H          -3.503944       -9.300065        2.469744
 H          -2.012670      -10.305247        2.472598
 C          -3.060546      -10.271084        2.777258
 C          -3.917176      -11.382128        2.170446
 C          -2.968367      -10.278707        4.280439
 C          -3.504984      -12.740468        2.856791
 C          -2.577210      -11.635501        4.808753
 C          -3.492343      -12.695188        4.378173
 H          -3.733250      -11.529430        1.091010
 H          -5.016741      -11.223400        2.416692
 H          -2.213930       -9.477466        4.499253
 H          -3.800136       -9.867578        4.856774
 H          -2.450639      -12.987514        2.508500
 H          -4.183836      -13.551880        2.501979
 H          -2.416661      -11.626934        5.875049
 H          -1.553416      -11.780988        4.473182
 H          -3.236555      -13.658794        4.803144
 H          -4.465261      -12.395511        4.746168
