20
 generated by VMD
 C         -39.146011     -116.120331      -35.258873
 N         -39.410610     -115.401093      -34.406097
 H         -41.298901     -115.670952      -37.230625
 H         -38.647396     -116.673805      -35.995033
 C         -42.418335     -115.873489      -37.468788
 C         -43.017986     -115.549255      -38.860275
 C         -43.280659     -115.719452      -36.264217
 C         -44.271610     -116.367256      -38.956581
 C         -44.765022     -116.261963      -36.470299
 C         -45.359409     -116.021568      -37.908340
 H         -42.268562     -115.837242      -39.547295
 H         -43.320652     -114.534431      -38.987091
 H         -42.979916     -116.311333      -35.397667
 H         -43.461315     -114.643028      -36.054314
 H         -44.171307     -117.482697      -38.906158
 H         -44.681175     -116.166130      -39.898823
 H         -45.444496     -115.823593      -35.775127
 H         -44.642578     -117.278114      -36.363506
 H         -46.479603     -116.702644      -38.035507
 H         -45.749279     -114.995880      -37.961456
