20
 generated by VMD
 C         -58.480785     -152.072159      -49.406265
 N         -59.685543     -152.189499      -49.387264
 H         -55.981720     -150.008530      -47.985077
 H         -57.423962     -151.857025      -49.534565
 C         -55.222069     -149.660629      -48.742588
 C         -54.361336     -150.675690      -49.389252
 C         -54.862679     -148.253220      -49.018246
 C         -54.184139     -150.436523      -50.991413
 C         -54.803757     -148.024429      -50.454697
 C         -53.746296     -148.957748      -51.263950
 H         -54.845604     -151.641953      -49.446655
 H         -53.486858     -150.761642      -48.891968
 H         -55.614571     -147.635574      -48.479832
 H         -53.915550     -148.111832      -48.458195
 H         -55.197918     -150.653473      -51.403282
 H         -53.512390     -151.112671      -51.525566
 H         -54.465748     -146.902527      -50.555946
 H         -55.786152     -148.280029      -50.809780
 H         -53.915985     -148.685059      -52.289387
 H         -52.618092     -148.801422      -50.954952
