20
 generated by VMD
 C         -34.970535      -97.227928      -26.430317
 N         -34.455101      -97.655029      -25.475016
 H         -35.424473      -94.078720      -27.587166
 H         -35.336815      -96.833908      -27.298269
 C         -35.258671      -94.002457      -28.657713
 C         -35.948059      -94.931099      -29.569889
 C         -33.838913      -93.681564      -28.980028
 C         -35.885746      -94.461655      -31.022381
 C         -33.789761      -93.232361      -30.430553
 C         -34.358257      -94.257339      -31.416317
 H         -37.018299      -94.972649      -29.366432
 H         -35.552685      -95.941193      -29.580070
 H         -33.477276      -93.085861      -28.143972
 H         -33.349110      -94.618301      -28.970015
 H         -36.574276      -93.597504      -31.163616
 H         -36.274292      -95.221046      -31.738380
 H         -32.744377      -92.854591      -30.648376
 H         -34.409878      -92.348244      -30.616457
 H         -34.100033      -93.815445      -32.552429
 H         -33.793369      -95.175911      -31.372141
