20
 generated by VMD
 C         -41.948360     -120.279404      -34.602440
 N         -42.382103     -121.306152      -34.246300
 H         -43.713051     -120.183426      -37.612007
 H         -41.534237     -119.351746      -35.129768
 C         -43.947517     -119.264191      -38.227116
 C         -43.112511     -118.983681      -39.398354
 C         -45.227478     -118.574547      -38.120247
 C         -43.915142     -118.812889      -40.764816
 C         -46.051521     -118.537125      -39.362019
 C         -45.246483     -118.037521      -40.587685
 H         -42.349777     -119.715652      -39.614777
 H         -42.418991     -118.059738      -39.392174
 H         -45.721195     -118.981392      -37.210968
 H         -45.020905     -117.440224      -37.951908
 H         -44.219582     -119.798508      -41.072983
 H         -43.218018     -118.429672      -41.463478
 H         -46.987236     -118.073883      -39.269798
 H         -46.248978     -119.585289      -39.725903
 H         -45.678726     -118.021858      -41.606796
 H         -45.022030     -116.880920      -40.481632
