20
 generated by VMD
 C         -39.919991     -105.311523      -37.207451
 N         -39.940250     -104.171410      -36.980328
 H         -40.058018     -108.130913      -35.168655
 H         -39.933544     -106.408951      -37.117088
 C         -39.679169     -108.619080      -34.236111
 C         -38.463112     -108.170578      -33.530140
 C         -40.388462     -109.817589      -33.763988
 C         -38.794407     -107.870613      -32.082550
 C         -40.815422     -109.531143      -32.420223
 C         -39.579136     -109.120117      -31.426466
 H         -38.149406     -107.140724      -33.989307
 H         -37.606663     -108.868614      -33.606785
 H         -41.284145     -110.040543      -34.360561
 H         -39.797089     -110.667374      -33.842690
 H         -39.368763     -107.027992      -31.933960
 H         -37.861557     -107.786934      -31.532782
 H         -41.416386     -110.456482      -32.055008
 H         -41.637318     -108.710075      -32.341278
 H         -39.950706     -108.854561      -30.328743
 H         -38.915817     -109.918365      -31.251631
