20
 generated by VMD
 C         -68.237465     -195.317795      -64.832237
 N         -68.759239     -196.334579      -64.641609
 H         -71.221428     -194.484924      -66.883011
 H         -67.577805     -194.453293      -65.109451
 C         -72.121384     -193.893890      -67.099571
 C         -72.118889     -192.427338      -66.882812
 C         -73.383408     -194.382401      -67.652122
 C         -73.345551     -192.009277      -66.052284
 C         -74.662445     -193.926117      -66.978287
 C         -74.666603     -192.389542      -66.803848
 H         -72.113762     -191.776169      -67.871742
 H         -71.140388     -192.018478      -66.467613
 H         -73.326653     -193.928253      -68.757278
 H         -73.442696     -195.538620      -67.930290
 H         -73.304268     -190.993759      -65.698509
 H         -73.447929     -192.535141      -65.123322
 H         -74.784126     -194.472702      -66.034424
 H         -75.490509     -194.186539      -67.623711
 H         -74.632797     -191.732498      -67.764694
 H         -75.485893     -192.020279      -66.348953
