20
 generated by VMD
 C         -13.749907      -28.189533       -3.503598
 N         -14.034588      -27.286341       -4.074834
 H         -10.300566      -28.778912       -2.524136
 H         -10.115993      -27.634979       -3.848150
 C          -9.598369      -28.324234       -3.248242
 C          -9.091619      -29.322992       -4.341928
 C          -8.467603      -27.685980       -2.473680
 C          -7.941469      -28.742027       -5.117702
 C          -7.332150      -27.129622       -3.327756
 C          -6.809265      -28.160480       -4.275600
 H          -9.878797      -29.568420       -5.013681
 H          -8.708046      -30.191803       -3.730033
 H          -8.916070      -26.893150       -1.879762
 H          -7.984400      -28.473207       -1.863887
 H          -8.239507      -27.839958       -5.685237
 H          -7.584058      -29.516865       -5.762431
 H          -6.534979      -26.775049       -2.686202
 H          -7.823660      -26.321741       -3.891947
 H          -5.989807      -27.917517       -4.947223
 H          -6.379251      -29.007605       -3.682804
