20
 generated by VMD
 C         -18.153736      -49.364834       -8.439208
 N         -19.160664      -49.862373       -8.472657
 H         -16.424109      -47.435234       -9.923610
 H         -17.032574      -48.973278      -10.553071
 C         -16.651501      -47.947525      -10.876703
 C         -15.389558      -48.102570      -11.710458
 C         -17.769545      -47.163307      -11.565332
 C         -15.682048      -48.696167      -13.120760
 C         -18.056990      -47.628227      -13.009372
 C         -16.815174      -47.953545      -13.847945
 H         -14.768931      -48.697384      -11.075620
 H         -14.870731      -47.127373      -11.818983
 H         -18.707380      -47.169880      -11.001194
 H         -17.318615      -46.197598      -11.624565
 H         -16.000439      -49.735035      -12.974564
 H         -14.828349      -48.576042      -13.820456
 H         -18.666672      -46.923531      -13.489142
 H         -18.690420      -48.568787      -12.970595
 H         -17.115088      -48.465672      -14.832954
 H         -16.387955      -46.941784      -14.181138
