20
 generated by VMD
 C          -5.554022      -21.243010        1.593640
 N          -5.591655      -21.066370        2.691903
 H          -4.905542      -18.773201       -0.848673
 H          -5.773736      -20.135296       -0.216083
 C          -5.757299      -19.424477       -1.019046
 C          -5.536505      -20.056297       -2.337726
 C          -7.130270      -18.744232       -1.041633
 C          -6.611072      -21.097786       -2.591232
 C          -8.247545      -19.775913       -1.153599
 C          -8.041906      -20.642015       -2.382590
 H          -4.576865      -20.549128       -2.412847
 H          -5.545822      -19.289207       -3.189824
 H          -7.247501      -18.012371       -0.244127
 H          -7.169682      -18.016497       -1.830342
 H          -6.276900      -21.943068       -1.974244
 H          -6.527557      -21.451487       -3.670805
 H          -9.242229      -19.262356       -1.193074
 H          -8.294140      -20.437317       -0.279772
 H          -8.784758      -21.451002       -2.365249
 H          -8.294695      -20.072191       -3.304805
