20
 generated by VMD
 C         -30.188015      -80.206116      -26.375021
 N         -29.370962      -79.354301      -26.414433
 H         -28.269499      -82.792938      -25.435892
 H         -31.046164      -80.903824      -26.454185
 C         -29.131712      -82.834679      -24.687153
 C         -28.986597      -82.001236      -23.372444
 C         -30.079802      -84.049477      -24.715622
 C         -30.261490      -81.977707      -22.643118
 C         -31.234406      -84.097366      -23.614372
 C         -30.837383      -83.399284      -22.387157
 H         -28.712790      -80.993660      -23.713594
 H         -28.093775      -82.404533      -22.772352
 H         -30.514721      -84.085762      -25.744600
 H         -29.530798      -84.981171      -24.723671
 H         -31.102842      -81.343674      -23.040068
 H         -30.154295      -81.530998      -21.691175
 H         -31.659666      -85.127235      -23.510771
 H         -32.064892      -83.530922      -24.061079
 H         -31.673460      -83.450958      -21.759893
 H         -30.028803      -83.909584      -21.822874
