20
 generated by VMD
 C         -11.490811      -27.457169       -1.490052
 N         -12.102717      -26.542198       -1.616930
 H         -10.498076      -25.922865       -4.217720
 H          -9.037141      -25.732153       -5.310299
 C          -9.374912      -26.028656       -4.300207
 C          -8.992010      -27.471964       -4.186494
 C          -8.690264      -25.165951       -3.265612
 C          -7.477497      -27.684805       -4.102789
 C          -7.158733      -25.343567       -3.359293
 C          -6.771269      -26.760191       -3.116042
 H          -9.377115      -28.119259       -4.895619
 H          -9.413559      -27.825153       -3.217070
 H          -9.072072      -24.141275       -3.300686
 H          -8.930107      -25.619850       -2.301301
 H          -7.063101      -27.465000       -5.144258
 H          -7.186012      -28.757765       -3.938525
 H          -6.713734      -24.579443       -2.670042
 H          -6.819006      -24.979769       -4.341223
 H          -5.691561      -26.870403       -3.111141
 H          -7.039087      -27.030241       -2.066117
