20
 generated by VMD
 C         -29.507055      -74.695251      -19.640169
 N         -30.489677      -74.454727      -20.171270
 H         -25.892843      -73.473328      -18.914724
 H         -28.509895      -74.851479      -19.329184
 C         -25.660238      -73.415398      -19.944956
 C         -25.357147      -74.612328      -20.715715
 C         -25.448477      -72.095528      -20.491266
 C         -25.948593      -74.547188      -22.076241
 C         -26.022284      -71.944595      -21.912817
 C         -25.821873      -73.151230      -22.765621
 H         -25.728298      -75.554947      -20.047941
 H         -24.288933      -74.774300      -20.742313
 H         -25.877481      -71.242325      -19.978586
 H         -24.378696      -71.775749      -20.558638
 H         -27.008598      -74.710220      -22.156704
 H         -25.428675      -75.380295      -22.592932
 H         -25.565752      -71.058434      -22.439295
 H         -27.043558      -71.778511      -21.809460
 H         -26.359943      -73.058838      -23.772699
 H         -24.732931      -73.199020      -23.070143
