20
 generated by VMD
 C         -10.506110      -33.308208       -9.485394
 N         -10.951593      -32.542690       -8.846064
 H         -11.952201      -36.224495       -7.941160
 H         -12.490210      -35.613575       -6.314682
 C         -12.512845      -36.501980       -7.020442
 C         -11.822468      -37.765423       -6.456738
 C         -13.975642      -36.811966       -7.367013
 C         -12.558036      -38.242836       -5.186855
 C         -14.716114      -37.143322       -6.069019
 C         -14.098002      -38.357399       -5.363771
 H         -10.851295      -37.390469       -6.167529
 H         -11.676048      -38.512630       -7.234507
 H         -14.427527      -35.956753       -7.810516
 H         -14.131960      -37.608326       -8.154938
 H         -12.469853      -37.616093       -4.337155
 H         -12.194832      -39.271320       -4.951367
 H         -15.711926      -37.393864       -6.288521
 H         -14.814570      -36.213806       -5.420882
 H         -14.536604      -38.701012       -4.406341
 H         -14.302012      -39.204594       -6.048870
