20
 generated by VMD
 C         -60.722206     -153.325134      -52.246872
 N         -61.241936     -153.932327      -51.375957
 H         -57.527664     -154.087692      -51.498199
 H         -60.250675     -152.593536      -52.930790
 C         -56.780102     -153.394577      -51.134701
 C         -56.097305     -153.712830      -49.816750
 C         -56.251728     -152.173386      -51.777626
 C         -54.626888     -153.664291      -49.717957
 C         -54.731979     -152.137695      -51.716007
 C         -54.197300     -152.339325      -50.234554
 H         -56.543018     -154.744278      -49.809559
 H         -56.510002     -153.061279      -49.036304
 H         -56.581909     -152.092438      -52.807045
 H         -56.690670     -151.243103      -51.293148
 H         -54.252773     -154.539948      -50.285728
 H         -54.297852     -153.955048      -48.784515
 H         -54.315319     -151.033386      -52.055286
 H         -54.306843     -152.854675      -52.411797
 H         -53.119175     -152.193100      -50.162365
 H         -54.564011     -151.388885      -49.724861
