20
 generated by VMD
 C         -13.041108      -28.591103       -5.283535
 N         -12.819600      -27.528786       -5.567339
 H         -11.192317      -31.021166       -3.118523
 H         -11.152884      -29.352259       -4.058849
 C         -10.575222      -30.196758       -3.588702
 C          -9.723298      -30.968224       -4.703431
 C          -9.577816      -29.677774       -2.519248
 C          -8.671868      -29.991276       -5.348707
 C          -8.561522      -28.678110       -3.109439
 C          -7.779546      -29.372688       -4.313295
 H         -10.504855      -31.304157       -5.409759
 H          -9.148741      -31.828478       -4.273817
 H         -10.151678      -29.184353       -1.765202
 H          -9.078947      -30.546900       -2.062504
 H          -9.268023      -29.179708       -5.840740
 H          -8.018146      -30.538637       -6.047172
 H          -7.785766      -28.404375       -2.400151
 H          -9.049718      -27.784477       -3.549948
 H          -7.125952      -28.621984       -4.781467
 H          -7.125044      -30.105347       -3.830331
