20
 generated by VMD
 C         -12.984156      -28.795124       -6.147654
 N         -13.107609      -28.749199       -7.252357
 H         -12.118177      -30.985023       -4.904569
 H         -10.757261      -29.847141       -4.869313
 C         -11.033932      -30.851986       -4.730420
 C         -10.136400      -31.685528       -5.640719
 C         -10.837311      -31.141136       -3.289151
 C          -8.683630      -31.475939       -5.124057
 C          -9.456944      -31.181721       -2.798939
 C          -8.574097      -32.038250       -3.694401
 H         -10.276646      -31.399483       -6.705142
 H         -10.446294      -32.759159       -5.569611
 H         -11.438125      -30.391645       -2.734991
 H         -11.258096      -32.117950       -3.045282
 H          -8.437838      -30.426342       -5.075036
 H          -8.055522      -31.981153       -5.829563
 H          -9.402902      -31.492586       -1.785428
 H          -9.029051      -30.117876       -2.781005
 H          -7.556140      -31.879799       -3.337641
 H          -8.927678      -33.050152       -3.641224
