20
 generated by VMD
 C         -70.820206     -198.804825      -64.372520
 N         -70.194290     -198.464600      -65.299591
 H         -72.253799     -196.406006      -66.694092
 H         -71.214890     -199.275314      -63.460125
 C         -73.151726     -195.914612      -67.061569
 C         -73.275375     -194.450012      -66.589439
 C         -73.970787     -196.429703      -68.189934
 C         -73.228340     -193.538193      -67.727295
 C         -74.761444     -195.320175      -68.789047
 C         -74.093178     -193.959610      -69.037582
 H         -72.590347     -194.200653      -65.752045
 H         -74.256340     -194.346649      -65.942795
 H         -73.371368     -196.919022      -68.962906
 H         -74.515617     -197.301544      -67.876549
 H         -72.184776     -193.299774      -67.976105
 H         -73.656502     -192.627243      -67.356110
 H         -75.664467     -195.150253      -68.126068
 H         -75.284737     -195.723526      -69.702118
 H         -73.288994     -194.023819      -69.870621
 H         -74.746780     -193.238220      -69.324379
