20
 generated by VMD
 C         -38.423389     -112.979134      -36.461170
 N         -37.256599     -112.945602      -36.274635
 H         -41.465931     -114.964798      -34.813122
 H         -39.445438     -113.304420      -36.502819
 C         -42.307819     -114.822502      -35.460278
 C         -42.090740     -114.585045      -36.912319
 C         -43.501259     -114.233704      -34.789440
 C         -43.344765     -115.028618      -37.624374
 C         -44.799679     -114.373367      -35.670101
 C         -44.592236     -114.234024      -37.150326
 H         -41.410515     -115.306427      -37.330894
 H         -41.870296     -113.493858      -37.252064
 H         -43.492977     -114.887451      -33.916389
 H         -43.265923     -113.157097      -34.540714
 H         -43.510490     -116.065460      -37.401703
 H         -43.258076     -115.001213      -38.705872
 H         -45.557419     -113.721611      -35.385925
 H         -45.126587     -115.355927      -35.541431
 H         -45.497410     -114.685143      -37.704269
 H         -44.710201     -113.186691      -37.404728
