20
 generated by VMD
 C         -78.088905     -204.113571      -69.985069
 N         -79.182846     -203.773224      -70.022507
 H         -76.351158     -203.159409      -68.090401
 H         -77.094894     -204.341827      -70.172371
 C         -75.561066     -202.676392      -68.687134
 C         -75.875450     -201.559265      -69.626617
 C         -74.297852     -203.470642      -68.866272
 C         -74.915680     -201.342636      -70.766998
 C         -73.048988     -202.687119      -69.368279
 C         -73.489296     -201.453613      -70.293152
 H         -75.828056     -200.676559      -68.986588
 H         -76.905312     -201.709030      -69.886871
 H         -74.105331     -203.938660      -67.879738
 H         -74.473557     -204.219345      -69.693153
 H         -74.982651     -200.292419      -71.068352
 H         -75.129730     -201.907639      -71.726173
 H         -72.399200     -203.440002      -69.769524
 H         -72.486542     -202.290039      -68.570930
 H         -73.172363     -200.521973      -69.871651
 H         -72.916855     -201.544449      -71.292419
