20
 generated by VMD
 C         -29.317947      -89.680298      -25.154501
 N         -29.334925      -88.750374      -25.828821
 H         -31.892097      -91.208855      -27.494564
 H         -29.350851      -90.660759      -24.638269
 C         -32.808037      -90.553482      -27.563568
 C         -33.966167      -90.787628      -26.621778
 C         -32.921005      -89.374817      -28.633656
 C         -34.647236      -89.466774      -26.251308
 C         -33.683365      -88.113388      -28.122541
 C         -34.901466      -88.574387      -27.430227
 H         -33.578693      -91.276474      -25.761898
 H         -34.563763      -91.514404      -27.116745
 H         -31.880772      -89.168365      -28.959070
 H         -33.569611      -89.612518      -29.468868
 H         -33.932457      -88.986504      -25.654552
 H         -35.464512      -89.583885      -25.632936
 H         -33.769711      -87.385216      -28.879402
 H         -33.103374      -87.608765      -27.339598
 H         -35.446579      -87.648178      -26.964041
 H         -35.601280      -89.211792      -28.049374
