20
 generated by VMD
 C         -12.531462      -27.652927       -4.654133
 N         -13.148202      -27.951010       -5.518251
 H         -10.792219      -30.752571       -2.846427
 H         -10.986375      -29.196749       -3.787434
 C         -10.278413      -29.988037       -3.382483
 C          -9.604274      -30.684723       -4.569236
 C          -9.305886      -29.306787       -2.446651
 C          -8.740575      -29.624462       -5.339915
 C          -8.421029      -28.341093       -3.154434
 C          -7.714930      -28.924261       -4.371237
 H         -10.361437      -31.084616       -5.275479
 H          -9.029769      -31.504921       -4.215032
 H          -9.905137      -28.751602       -1.681651
 H          -8.746673      -30.021374       -1.827292
 H          -9.418177      -28.914080       -5.760989
 H          -8.163544      -30.134422       -6.119404
 H          -7.585760      -27.981863       -2.465124
 H          -8.921421      -27.415508       -3.438944
 H          -7.334598      -28.008377       -4.872590
 H          -6.921214      -29.671476       -4.078069
