20
 generated by VMD
 C         -57.012108     -163.617630      -56.683041
 N         -57.236481     -162.622177      -57.299507
 H         -59.773930     -164.361389      -54.579128
 H         -56.781448     -164.495972      -56.107277
 C         -60.861526     -164.701752      -54.656929
 C         -61.522503     -165.065399      -53.405445
 C         -61.595016     -164.594818      -55.919785
 C         -62.859894     -164.425461      -53.302502
 C         -62.785149     -163.770035      -55.721870
 C         -63.656277     -164.270996      -54.547657
 H         -60.833614     -164.899261      -52.590553
 H         -61.613781     -166.200638      -53.397308
 H         -60.930298     -164.195602      -56.727177
 H         -61.767899     -165.613174      -56.218380
 H         -62.736824     -163.433655      -52.775387
 H         -63.428642     -165.115723      -52.638947
 H         -63.497803     -163.824020      -56.651722
 H         -62.608929     -162.577560      -55.807350
 H         -64.358719     -163.432709      -54.363712
 H         -64.183395     -165.198700      -54.838459
