20
 generated by VMD
 C         -18.051832      -48.556839       -7.334378
 N         -18.063080      -48.407391       -6.232738
 H         -16.361717      -48.196053      -10.272158
 H         -15.988293      -49.011757      -11.820179
 C         -16.332731      -48.110523      -11.342453
 C         -15.313791      -47.000366      -11.618399
 C         -17.703711      -47.773811      -11.838642
 C         -15.320240      -46.551102      -13.083947
 C         -17.673008      -47.391308      -13.332762
 C         -16.700489      -46.225430      -13.607509
 H         -14.288160      -47.396156      -11.379796
 H         -15.687541      -46.182411      -10.927265
 H         -18.423428      -48.609642      -11.678450
 H         -18.123451      -46.925514      -11.226848
 H         -14.812963      -47.277195      -13.754008
 H         -14.677270      -45.664539      -13.168253
 H         -18.648251      -46.936729      -13.714742
 H         -17.495060      -48.262302      -13.919558
 H         -16.696028      -45.908848      -14.619731
 H         -17.094524      -45.334366      -13.127722
