20
 generated by VMD
 C         -39.418480     -116.502609      -35.001041
 N         -39.445141     -115.485313      -34.413799
 H         -41.372051     -115.587990      -37.562347
 H         -39.696331     -117.423882      -35.601105
 C         -42.397659     -115.801201      -37.618549
 C         -43.005299     -115.865662      -38.962929
 C         -43.294048     -115.741554      -36.425835
 C         -44.450428     -116.354881      -39.090485
 C         -44.657963     -116.527115      -36.587883
 C         -45.401333     -116.186264      -37.894413
 H         -42.371662     -116.500267      -39.584572
 H         -42.860535     -114.878304      -39.314758
 H         -42.893375     -116.297043      -35.553802
 H         -43.627163     -114.742493      -36.227871
 H         -44.504787     -117.372108      -39.492054
 H         -45.063801     -115.746391      -39.817825
 H         -45.261139     -116.266945      -35.726540
 H         -44.448734     -117.570305      -36.670567
 H         -46.512131     -116.847252      -37.924210
 H         -45.758076     -115.065521      -37.940258
