20
 generated by VMD
 C         -40.792820     -102.785034      -34.902569
 N         -41.482422     -102.505409      -35.795280
 H         -40.057114     -104.608917      -32.787209
 H         -40.208824     -102.968063      -34.001453
 C         -38.902111     -104.740433      -32.401894
 C         -37.620220     -104.012375      -32.988281
 C         -38.618134     -105.930458      -31.422329
 C         -36.468124     -104.066582      -31.928637
 C         -37.413082     -105.875961      -30.527098
 C         -36.196995     -105.408424      -31.278074
 H         -37.874588     -103.050522      -33.345493
 H         -37.363438     -104.582458      -33.884991
 H         -39.498421     -106.034409      -30.871916
 H         -38.584667     -106.882355      -32.078121
 H         -36.686321     -103.340134      -31.113909
 H         -35.557671     -103.585213      -32.320862
 H         -36.996834     -106.878365      -30.207630
 H         -37.666595     -105.278107      -29.561663
 H         -35.406105     -105.222733      -30.508789
 H         -35.869408     -106.145142      -31.942434
