20
 generated by VMD
 C         -41.214436     -102.412025      -35.174152
 N         -41.533493     -103.187431      -35.970642
 H         -39.455540     -104.830826      -33.304523
 H         -40.619675     -101.737862      -34.548462
 C         -38.684376     -104.846931      -32.639587
 C         -37.414631     -104.359421      -32.942764
 C         -38.871449     -106.169800      -31.867004
 C         -36.449406     -104.452469      -31.763042
 C         -37.849876     -106.329681      -30.669392
 C         -36.350391     -105.831818      -31.040907
 H         -37.376450     -103.276733      -33.199455
 H         -37.062641     -104.918961      -33.787510
 H         -39.886101     -106.240692      -31.382727
 H         -38.776772     -106.960808      -32.571465
 H         -36.800861     -103.725624      -31.049896
 H         -35.495193     -104.004402      -32.056679
 H         -37.572037     -107.429596      -30.408596
 H         -38.303890     -105.832611      -29.815767
 H         -35.609997     -105.795776      -30.225044
 H         -36.010349     -106.478531      -31.822773
