20
 generated by VMD
 C         -21.672506      -66.350830      -16.654724
 N         -20.880268      -66.828323      -15.990823
 H         -24.085741      -64.355347      -18.428413
 H         -22.495897      -65.763664      -17.264482
 C         -24.446602      -65.369186      -18.616627
 C         -24.415575      -65.735977      -19.988161
 C         -25.646324      -65.870750      -17.814009
 C         -24.277283      -67.292984      -20.088123
 C         -25.758820      -67.427155      -18.011593
 C         -25.483969      -67.897758      -19.393677
 H         -23.518597      -65.341232      -20.473434
 H         -25.329296      -65.318153      -20.512705
 H         -25.431820      -65.809341      -16.697947
 H         -26.479597      -65.170242      -17.949429
 H         -23.319157      -67.531113      -19.674633
 H         -24.275475      -67.504860      -21.107830
 H         -26.807674      -67.686432      -17.696863
 H         -25.183161      -68.028641      -17.337515
 H         -25.382956      -69.045853      -19.429888
 H         -26.310244      -67.615471      -20.033302
