20
 generated by VMD
 C         -50.050659     -142.960144      -45.054745
 N         -48.983467     -143.306900      -45.439556
 H         -52.082253     -140.739319      -45.243191
 H         -51.007671     -142.754593      -44.616192
 C         -52.578732     -140.986679      -46.195518
 C         -52.123131     -141.088684      -47.634571
 C         -54.101246     -140.745407      -46.053261
 C         -52.914825     -142.114761      -48.403412
 C         -54.885586     -141.738037      -46.879356
 C         -54.447388     -141.851486      -48.266850
 H         -51.025280     -141.347397      -47.512974
 H         -52.162971     -140.096207      -48.121864
 H         -54.520847     -140.823105      -44.982048
 H         -54.281090     -139.564621      -46.301250
 H         -52.682545     -143.100510      -48.099392
 H         -52.737026     -142.060379      -49.465496
 H         -55.898586     -141.345047      -47.002464
 H         -54.972054     -142.586563      -46.243290
 H         -54.931713     -142.723541      -48.683407
 H         -54.624947     -140.898941      -48.779381
