20
 generated by VMD
 C         -41.374882     -119.271606      -34.613785
 N         -40.694229     -119.554031      -35.510441
 H         -43.304703     -117.778458      -36.316662
 H         -42.190048     -119.083496      -33.835426
 C         -43.775238     -117.856941      -37.327068
 C         -43.013489     -118.051979      -38.578903
 C         -45.166325     -117.187241      -37.615574
 C         -43.723076     -118.433891      -39.896614
 C         -45.942730     -117.744865      -38.801838
 C         -45.085659     -117.777359      -40.106815
 H         -42.142616     -118.820114      -38.466259
 H         -42.448364     -117.027779      -38.705635
 H         -45.734749     -117.319839      -36.701057
 H         -45.074409     -116.161949      -37.838959
 H         -43.920212     -119.521637      -39.858295
 H         -43.115810     -118.229591      -40.821590
 H         -46.745285     -117.168861      -39.036869
 H         -46.142952     -118.779213      -38.575974
 H         -45.599277     -118.330833      -40.923180
 H         -44.886871     -116.772957      -40.462276
