20
 generated by VMD
 C         -38.093258     -114.694107      -35.394131
 N         -38.971840     -115.226143      -34.848251
 H         -41.575886     -115.710274      -36.536728
 H         -37.303383     -114.136986      -35.954086
 C         -42.393360     -115.229073      -36.915161
 C         -42.866928     -115.203407      -38.393505
 C         -43.487892     -115.017242      -35.902435
 C         -44.200966     -115.962906      -38.648449
 C         -44.749214     -115.970764      -36.194981
 C         -45.276974     -115.615303      -37.622173
 H         -41.968185     -115.552231      -38.952309
 H         -42.945385     -114.194511      -38.799572
 H         -43.128017     -115.393288      -34.911846
 H         -43.792374     -113.948212      -35.961609
 H         -43.921211     -117.047302      -38.667389
 H         -44.524685     -115.761681      -39.682144
 H         -45.633167     -115.831596      -35.565441
 H         -44.314262     -116.962532      -36.241375
 H         -46.225819     -116.065536      -37.711205
 H         -45.498116     -114.462128      -37.668522
