20
 generated by VMD
 C         -79.571663     -205.660263      -72.642738
 N         -80.225433     -206.579651      -72.477623
 H         -77.654488     -204.749344      -70.752235
 H         -78.952171     -204.791138      -72.932587
 C         -76.684029     -205.161285      -70.983925
 C         -75.511803     -204.257278      -71.311371
 C         -76.395775     -206.504044      -70.445236
 C         -74.734451     -204.062531      -70.056152
 C         -75.666908     -206.293518      -69.139656
 C         -74.369347     -205.517120      -69.497955
 H         -75.930672     -203.350479      -71.679893
 H         -74.933403     -204.746689      -72.095924
 H         -77.270386     -207.098602      -70.262772
 H         -75.597229     -207.034409      -70.956238
 H         -75.461472     -203.455170      -69.474014
 H         -73.922745     -203.286758      -70.213638
 H         -75.406937     -207.269913      -68.639969
 H         -76.287071     -205.741821      -68.478493
 H         -73.762993     -205.620987      -68.566277
 H         -73.726357     -205.981827      -70.260933
