20
 generated by VMD
 C         -80.161118     -206.879196      -74.050697
 N         -80.517563     -206.442841      -75.039459
 H         -77.117096     -207.264175      -72.885513
 H         -79.905373     -207.430115      -73.207764
 C         -76.733810     -207.430054      -71.909241
 C         -75.462708     -206.838974      -71.452431
 C         -77.248726     -208.561691      -71.101295
 C         -75.551308     -206.431046      -69.981453
 C         -77.190392     -208.309052      -69.570198
 C         -75.785393     -207.670822      -69.129173
 H         -75.120293     -205.911285      -71.899895
 H         -74.825264     -207.700714      -71.661499
 H         -78.270615     -208.812653      -71.405952
 H         -76.541382     -209.453171      -71.269691
 H         -76.286934     -205.695206      -69.679031
 H         -74.537048     -206.077957      -69.800224
 H         -77.354050     -209.267471      -69.018280
 H         -77.950211     -207.551697      -69.218994
 H         -75.777237     -207.489044      -68.037186
 H         -75.113525     -208.433777      -69.323372
