20
 generated by VMD
 C         -47.421139     -138.340073      -45.742680
 N         -47.110729     -138.162643      -46.803345
 H         -50.543209     -138.076859      -44.548836
 H         -47.664799     -138.660263      -44.715801
 C         -51.448364     -138.514984      -44.954189
 C         -51.636410     -138.869659      -46.398060
 C         -52.685215     -138.064590      -44.241516
 C         -52.722031     -139.913513      -46.502216
 C         -53.839207     -138.988983      -44.385433
 C         -54.002338     -139.489792      -45.866062
 H         -50.652767     -139.337357      -46.694965
 H         -52.056248     -138.057510      -46.998753
 H         -52.443790     -138.239639      -43.168922
 H         -52.830509     -136.947876      -44.504051
 H         -52.468872     -140.800903      -45.951820
 H         -52.932896     -140.036530      -47.546947
 H         -54.681381     -138.370728      -44.164986
 H         -53.707760     -139.989197      -43.804695
 H         -54.615376     -140.309357      -46.000294
 H         -54.371090     -138.662415      -46.482586
