20
 generated by VMD
 C         -58.947182     -159.866623      -57.091290
 N         -58.317478     -160.069992      -57.987324
 H         -58.685986     -161.392990      -54.769310
 H         -59.590191     -159.694107      -56.270138
 C         -59.497444     -161.792175      -54.193996
 C         -58.967838     -162.224182      -52.781319
 C         -60.902344     -162.145477      -54.667629
 C         -60.042847     -161.907623      -51.725990
 C         -61.815960     -161.974304      -53.456348
 C         -61.395084     -162.488266      -52.039490
 H         -58.169830     -161.569611      -52.430466
 H         -58.758881     -163.351364      -52.824364
 H         -61.279926     -161.468933      -55.434956
 H         -60.851509     -163.151443      -55.140110
 H         -59.987076     -160.764328      -51.443302
 H         -59.623894     -162.186752      -50.801765
 H         -62.830059     -162.354019      -53.759586
 H         -62.079159     -160.923615      -53.296116
 H         -62.128510     -162.355530      -51.328983
 H         -61.200138     -163.561447      -52.151299
