20
 generated by VMD
 C         -28.594833      -81.378174      -27.654928
 N         -29.580648      -80.839760      -27.439726
 H         -28.634584      -83.191452      -24.300285
 H         -27.582602      -81.863808      -27.912354
 C         -29.640726      -83.525642      -24.146120
 C         -30.007919      -83.664291      -22.669418
 C         -30.409538      -84.227249      -25.196646
 C         -31.488153      -84.203796      -22.391588
 C         -31.906935      -84.430389      -24.827118
 C         -32.011711      -85.092224      -23.463957
 H         -29.719103      -82.722763      -22.188015
 H         -29.343678      -84.545303      -22.350256
 H         -30.431206      -83.643799      -26.157360
 H         -29.978964      -85.242104      -25.283405
 H         -32.269241      -83.335373      -22.300720
 H         -31.508490      -84.755554      -21.467468
 H         -32.398960      -85.138275      -25.537453
 H         -32.563095      -83.425537      -24.860329
 H         -33.067150      -85.138954      -23.203247
 H         -31.576086      -86.067940      -23.373257
