20
 generated by VMD
 C         -23.043667      -54.465385      -15.106069
 N         -23.885506      -53.846111      -15.600324
 H         -20.275536      -54.656689      -15.423910
 H         -22.559113      -55.186226      -14.225236
 C         -19.793556      -55.318050      -14.630653
 C         -19.177952      -54.611805      -13.482416
 C         -19.029680      -56.459724      -15.135962
 C         -18.497810      -55.478813      -12.440478
 C         -18.610313      -57.440239      -14.018343
 C         -17.678291      -56.670631      -13.059914
 H         -19.915010      -53.934868      -13.152063
 H         -18.389576      -54.035412      -13.886811
 H         -19.682276      -57.081352      -15.816670
 H         -18.182268      -56.086906      -15.645095
 H         -19.237471      -55.885761      -11.715666
 H         -17.898291      -54.870094      -11.760137
 H         -18.133270      -58.370350      -14.483850
 H         -19.446220      -57.799675      -13.436773
 H         -17.241201      -57.347782      -12.297037
 H         -16.801971      -56.336040      -13.650002
