20
 generated by VMD
 C         -11.419547      -33.755939       -9.216788
 N         -11.292712      -34.331779       -8.256846
 H         -11.537683      -37.188526       -8.048320
 H         -12.075824      -36.461864       -6.622938
 C         -12.219564      -37.306149       -7.244480
 C         -12.147718      -38.706955       -6.629689
 C         -13.630486      -37.142288       -7.858689
 C         -13.236305      -38.795788       -5.528937
 C         -14.749453      -37.359638       -6.869590
 C         -14.608800      -38.731712       -6.190708
 H         -11.161327      -38.904324       -6.187913
 H         -12.353667      -39.421886       -7.464536
 H         -13.674562      -36.210201       -8.336944
 H         -13.756717      -37.903397       -8.659242
 H         -13.156803      -38.098732       -4.674246
 H         -13.122757      -39.861958       -5.176028
 H         -15.668321      -37.355083       -7.329988
 H         -14.842491      -36.622616       -6.047079
 H         -15.326721      -38.755753       -5.369592
 H         -14.836975      -39.524738       -6.877454
