20
 generated by VMD
 C         -40.533089      -99.894676      -29.426178
 N         -39.995102     -100.181007      -28.458530
 H         -37.369602      -99.170479      -30.566315
 H         -41.163170      -99.856125      -30.290291
 C         -36.317936      -98.978012      -30.768194
 C         -35.801174      -99.223305      -32.115700
 C         -35.456627      -99.061882      -29.672161
 C         -34.803013      -98.229988      -32.514362
 C         -34.320221      -98.050858      -29.995079
 C         -33.736195      -98.075317      -31.396595
 H         -36.599220      -99.209106      -32.900055
 H         -35.540878     -100.240883      -32.063305
 H         -36.071701      -98.803909      -28.752918
 H         -35.070702     -100.033783      -29.489351
 H         -35.221165      -97.330917      -32.930340
 H         -34.258320      -98.699944      -33.445526
 H         -33.408611      -98.215492      -29.350311
 H         -34.720463      -97.065941      -29.791803
 H         -33.078430      -97.265816      -31.640106
 H         -33.060268      -98.992455      -31.353065
