20
 generated by VMD
 C         -10.232524      -24.880976       -0.655633
 N         -11.333117      -24.824480       -0.580582
 H          -6.374134      -25.385853       -0.963023
 H          -8.044294      -25.225323       -1.253881
 C          -7.063619      -25.069691       -1.737415
 C          -6.896128      -25.878756       -3.031021
 C          -6.904108      -23.531076       -2.006790
 C          -7.908545      -25.491602       -4.112292
 C          -7.827478      -23.135330       -3.061620
 C          -7.881660      -23.963766       -4.330418
 H          -7.051927      -26.936220       -2.871233
 H          -5.940781      -25.532873       -3.386211
 H          -7.125681      -22.966318       -1.048420
 H          -5.886123      -23.339506       -2.366892
 H          -8.932300      -25.736012       -3.697865
 H          -7.655973      -26.027863       -5.060143
 H          -7.730450      -22.091007       -3.336473
 H          -8.845035      -23.201977       -2.663389
 H          -8.692398      -23.622082       -5.013983
 H          -6.974051      -23.629280       -4.800757
