20
 generated by VMD
 C         -79.850456     -205.428940      -71.678535
 N         -79.905586     -206.564621      -71.542603
 H         -76.421593     -203.850494      -72.053307
 H         -79.931580     -204.384949      -71.601120
 C         -76.222740     -203.863663      -70.965881
 C         -75.385124     -202.763748      -70.410042
 C         -76.342491     -205.139099      -70.069145
 C         -73.947258     -203.219742      -70.308243
 C         -75.078087     -205.175797      -69.018044
 C         -73.735771     -204.666977      -69.783127
 H         -75.775543     -202.321213      -69.431534
 H         -75.335854     -201.970215      -71.133301
 H         -77.276596     -205.125565      -69.594284
 H         -76.199982     -206.029877      -70.610641
 H         -73.284660     -202.571365      -69.696693
 H         -73.480698     -203.274277      -71.349976
 H         -74.945786     -206.249390      -68.760696
 H         -75.185745     -204.584763      -68.082359
 H         -72.836029     -204.944336      -69.154137
 H         -73.727478     -205.359360      -70.630585
