20
 generated by VMD
 C         -18.308561      -50.380894       -9.147339
 N         -19.403116      -50.176003       -9.238309
 H         -16.427467      -47.066212      -10.068810
 H         -17.530767      -48.389317      -10.606420
 C         -16.731382      -47.688572      -10.937318
 C         -15.604615      -48.523457      -11.462005
 C         -17.465279      -46.831318      -11.993893
 C         -16.021097      -49.364136      -12.706688
 C         -18.125351      -47.805397      -12.985306
 C         -16.995708      -48.604591      -13.622544
 H         -15.247110      -49.125668      -10.663498
 H         -14.720074      -47.950321      -11.820211
 H         -18.298037      -46.245579      -11.600339
 H         -16.797047      -46.153019      -12.485571
 H         -16.528173      -50.228165      -12.266965
 H         -15.167081      -49.753048      -13.296029
 H         -18.673588      -47.344273      -13.738600
 H         -18.878714      -48.458828      -12.442962
 H         -17.379683      -49.350410      -14.355641
 H         -16.437267      -47.879822      -14.252010
