20
 generated by VMD
 C         -15.119849      -46.101231       -6.520036
 N         -14.702502      -47.078133       -6.173846
 H         -15.741179      -44.543243       -9.237360
 H         -14.605880      -44.693493      -10.674014
 C         -15.659716      -44.767765      -10.301119
 C         -16.435585      -43.730640      -11.096581
 C         -16.232687      -46.146416      -10.574789
 C         -16.606569      -43.849075      -12.591385
 C         -16.474796      -46.314991      -12.075323
 C         -17.271030      -45.212139      -12.742280
 H         -16.038179      -42.765869      -10.785871
 H         -17.444859      -43.882812      -10.614638
 H         -15.550624      -46.977116      -10.280824
 H         -17.189053      -46.201736       -9.980294
 H         -15.673752      -43.817947      -13.160566
 H         -17.326321      -43.095131      -12.979719
 H         -17.064697      -47.217991      -12.186401
 H         -15.451928      -46.499146      -12.628298
 H         -17.464199      -45.324230      -13.798600
 H         -18.343529      -45.224148      -12.360246
