20
 generated by VMD
 C         -21.976736      -55.326626      -17.416752
 N         -21.771305      -55.718327      -18.487543
 H         -21.697855      -56.752106      -14.086316
 H         -21.846649      -55.192017      -16.350149
 C         -21.312853      -57.738708      -14.090662
 C         -21.130692      -58.534855      -12.943248
 C         -20.510437      -58.069160      -15.365499
 C         -20.798416      -60.044991      -13.214798
 C         -20.160486      -59.550930      -15.571669
 C         -19.835037      -60.239758      -14.333276
 H         -21.987333      -58.490738      -12.281679
 H         -20.320507      -58.072739      -12.387887
 H         -21.170736      -57.744240      -16.254467
 H         -19.579506      -57.498951      -15.443929
 H         -21.744896      -60.593582      -13.445107
 H         -20.459791      -60.534843      -12.271636
 H         -19.350534      -59.690269      -16.317837
 H         -21.034285      -59.944656      -16.064913
 H         -19.659733      -61.275124      -14.565473
 H         -18.937300      -59.777046      -14.023175
