20
 generated by VMD
 C         -79.651634     -206.912674      -75.310364
 N         -79.928864     -207.504456      -74.337944
 H         -76.693275     -208.140945      -73.388069
 H         -79.435661     -206.222000      -76.063065
 C         -76.876190     -208.123642      -72.242180
 C         -75.583031     -207.931137      -71.451920
 C         -77.903709     -209.036057      -71.767448
 C         -76.028946     -207.660690      -69.957336
 C         -78.075523     -209.065781      -70.198799
 C         -76.896072     -208.712189      -69.301071
 H         -75.097496     -207.021484      -71.935555
 H         -74.842598     -208.737747      -71.459305
 H         -78.918503     -208.697052      -72.126434
 H         -77.747414     -210.063431      -72.000473
 H         -76.605095     -206.707870      -69.927223
 H         -75.173874     -207.450348      -69.269730
 H         -78.656754     -209.877106      -69.672318
 H         -78.704964     -208.210236      -70.170494
 H         -77.184883     -208.498322      -68.266975
 H         -76.209137     -209.609619      -69.313766
