20
 generated by VMD
 C         -58.283726     -167.228180      -55.700741
 N         -57.507717     -167.719833      -55.040565
 H         -61.295742     -166.265167      -54.862602
 H         -59.067238     -166.710632      -56.182316
 C         -61.696587     -165.907257      -55.819271
 C         -62.066616     -166.954941      -56.960106
 C         -62.674023     -164.721634      -55.671001
 C         -63.492279     -167.398285      -56.836658
 C         -64.079865     -165.221100      -55.457203
 C         -64.467651     -166.141647      -56.679932
 H         -61.399624     -167.819138      -57.030422
 H         -61.945621     -166.345871      -57.808575
 H         -62.363319     -163.961517      -54.897221
 H         -62.631329     -164.285889      -56.593891
 H         -63.688652     -168.101135      -56.061604
 H         -63.729553     -167.803238      -57.796268
 H         -64.893105     -164.363785      -55.522686
 H         -64.229042     -165.884262      -54.578835
 H         -65.576675     -166.423965      -56.650913
 H         -64.348160     -165.456253      -57.608501
