20
 generated by VMD
 C          -1.930840      -13.165567        0.523170
 N          -1.584254      -13.377041        1.566251
 H          -3.525398      -16.556711        1.740881
 H          -3.971826      -16.092285        0.115882
 C          -4.388967      -16.378616        1.089678
 C          -5.280714      -15.239781        1.499309
 C          -5.103905      -17.715876        0.905102
 C          -6.613763      -15.188498        0.677391
 C          -6.334567      -17.636045        0.089027
 C          -7.258803      -16.579855        0.649104
 H          -4.787014      -14.245909        1.414204
 H          -5.596649      -15.490667        2.511863
 H          -4.316552      -18.582760        0.617810
 H          -5.446059      -18.042233        1.973203
 H          -6.346530      -14.801774       -0.355085
 H          -7.262466      -14.424162        1.193096
 H          -6.802118      -18.617064        0.170525
 H          -6.167758      -17.488623       -1.024859
 H          -8.072534      -16.544292       -0.077334
 H          -7.686299      -16.898447        1.603647
