20
 generated by VMD
 C         -40.094891     -100.816460      -30.908485
 N         -40.404388      -99.908096      -31.566751
 H         -37.057926     -103.191177      -31.506149
 H         -39.822876     -101.591736      -30.296522
 C         -36.612175     -102.198997      -31.299294
 C         -36.391975     -101.623367      -32.621555
 C         -35.927662     -101.788925      -30.058252
 C         -36.194775     -100.152351      -32.485607
 C         -35.653210     -100.351410      -29.936251
 C         -35.284542      -99.749268      -31.270313
 H         -37.298840     -101.918793      -33.150826
 H         -35.480934     -102.107872      -33.037262
 H         -36.441189     -102.248604      -29.168104
 H         -35.062290     -102.377449      -30.040083
 H         -37.134628      -99.596992      -32.305321
 H         -35.733742      -99.828056      -33.407593
 H         -34.891281     -100.256088      -29.196402
 H         -36.550617      -99.828491      -29.464140
 H         -35.258080      -98.682098      -31.057766
 H         -34.272133      -99.972214      -31.595306
