20
 generated by VMD
 C         -31.072065      -74.878731      -21.779631
 N         -31.573061      -75.950905      -21.756958
 H         -28.639439      -76.278503      -20.816637
 H         -30.541656      -73.943481      -21.741562
 C         -27.583021      -76.144890      -21.162287
 C         -26.775635      -77.159157      -21.957205
 C         -26.917147      -75.007637      -20.671288
 C         -25.690802      -76.505043      -22.877375
 C         -25.963436      -74.347687      -21.649855
 C         -24.975718      -75.364571      -22.194138
 H         -27.497782      -77.729256      -22.437275
 H         -26.244066      -77.901199      -21.372000
 H         -27.795532      -74.231911      -20.506699
 H         -26.403219      -75.190544      -19.707901
 H         -26.253725      -76.147552      -23.736929
 H         -24.977745      -77.235023      -23.221439
 H         -25.381725      -73.634171      -21.129854
 H         -26.366379      -73.813751      -22.468102
 H         -24.378050      -74.799141      -22.920940
 H         -24.092714      -75.700722      -21.619972
