20
 generated by VMD
 C         -11.456758      -27.230246       -1.260423
 N         -12.267046      -26.482552       -1.463722
 H         -10.448105      -26.164190       -3.871201
 H          -9.369736      -25.683641       -5.221717
 C          -9.407323      -26.028852       -4.186560
 C          -8.853591      -27.485712       -4.149326
 C          -8.663651      -25.077501       -3.287450
 C          -7.276454      -27.531929       -4.267884
 C          -7.178589      -25.205744       -3.321885
 C          -6.676433      -26.671358       -3.186110
 H          -9.299361      -28.007349       -4.944761
 H          -9.098971      -28.115831       -3.236155
 H          -8.851222      -24.087299       -3.678842
 H          -9.127931      -25.194372       -2.305317
 H          -6.982307      -27.296162       -5.308486
 H          -6.920458      -28.567621       -4.129782
 H          -6.735420      -24.578817       -2.490292
 H          -6.815289      -24.650442       -4.216289
 H          -5.588077      -26.647421       -3.254907
 H          -6.829186      -27.030500       -2.139156
