20
 generated by VMD
 C         -67.628334     -179.553680      -58.630459
 N         -68.161293     -179.744156      -59.662842
 H         -67.394501     -177.275757      -60.120056
 H         -67.144386     -179.468094      -57.640697
 C         -66.462929     -176.577133      -60.114933
 C         -66.113617     -175.950714      -61.340542
 C         -65.295555     -177.140778      -59.274147
 C         -65.015648     -174.842407      -61.264175
 C         -64.147491     -176.060211      -59.145611
 C         -63.758205     -175.375534      -60.451618
 H         -66.996368     -175.586914      -61.951416
 H         -65.748238     -176.746246      -61.989265
 H         -65.819504     -177.308945      -58.302006
 H         -65.188057     -178.118973      -59.693398
 H         -65.441124     -173.993393      -60.748638
 H         -64.520012     -174.447037      -62.218021
 H         -63.319897     -176.608887      -58.655243
 H         -64.570831     -175.233978      -58.522614
 H         -62.945995     -174.587387      -60.542690
 H         -63.265839     -176.191254      -61.047970
