20
 generated by VMD
 C         -78.423004     -210.164825      -76.339584
 N         -77.440681     -210.809464      -76.335426
 H         -80.203697     -212.103653      -74.634972
 H         -79.348587     -209.633759      -76.349174
 C         -79.952858     -212.652008      -73.783249
 C         -78.565254     -212.682953      -73.330894
 C         -80.970482     -213.631256      -73.312775
 C         -78.440529     -212.929871      -71.790718
 C         -80.888977     -213.494843      -71.766846
 C         -79.454025     -213.849319      -71.259567
 H         -77.860809     -211.939590      -73.713020
 H         -78.172226     -213.525101      -73.881454
 H         -81.928223     -213.276108      -73.629433
 H         -80.634918     -214.686096      -73.636803
 H         -78.494835     -211.986130      -71.187599
 H         -77.493134     -213.328033      -71.499496
 H         -81.541519     -214.252335      -71.423035
 H         -81.402451     -212.456100      -71.391075
 H         -79.498619     -213.820694      -70.109825
 H         -79.167381     -214.846420      -71.659668
