20
 generated by VMD
 C         -68.561905     -186.221893      -67.836136
 N         -68.284592     -187.283600      -67.520813
 H         -68.222702     -187.876663      -64.222237
 H         -68.858673     -185.152344      -67.997322
 C         -69.139526     -187.614044      -63.673374
 C         -68.971642     -187.293213      -62.258244
 C         -70.472061     -187.520828      -64.326073
 C         -69.870491     -188.058731      -61.414925
 C         -71.586235     -187.983673      -63.350735
 C         -71.321144     -187.817352      -61.788353
 H         -69.053429     -186.183182      -62.220787
 H         -67.909622     -187.527832      -62.025116
 H         -70.708504     -186.544388      -64.680214
 H         -70.434845     -188.188858      -65.123589
 H         -69.567963     -187.908020      -60.429752
 H         -69.804428     -189.144089      -61.600552
 H         -71.873703     -189.083252      -63.502651
 H         -72.563461     -187.556152      -63.686249
 H         -71.617332     -186.834686      -61.426208
 H         -72.134857     -188.416656      -61.341274
