20
 generated by VMD
 C         -14.119398      -28.102325       -3.076622
 N         -14.053292      -27.175108       -3.688358
 H         -10.424465      -28.256920       -2.893502
 H          -9.806286      -27.132736       -4.138747
 C          -9.498003      -27.922693       -3.453884
 C          -8.876747      -29.074064       -4.213671
 C          -8.452233      -27.215309       -2.541021
 C          -7.630022      -28.644587       -5.075901
 C          -7.146136      -26.902512       -3.267510
 C          -6.600677      -27.939163       -4.248903
 H          -9.676206      -29.582428       -4.820597
 H          -8.468484      -29.822090       -3.612733
 H          -8.877282      -26.297918       -2.124258
 H          -8.283654      -27.983118       -1.784296
 H          -8.047900      -27.996641       -5.869557
 H          -7.148715      -29.487415       -5.639554
 H          -6.349555      -26.583553       -2.555939
 H          -7.344056      -26.046631       -3.861329
 H          -5.889853      -27.471333       -4.916490
 H          -6.007283      -28.726727       -3.753848
