20
 generated by VMD
 C         -60.844391     -154.485855      -51.212101
 N         -61.155876     -154.172043      -52.316341
 H         -57.296932     -154.131210      -52.931015
 H         -60.695126     -154.816452      -50.211452
 C         -56.745129     -153.631424      -52.143341
 C         -57.090221     -153.864700      -50.709728
 C         -55.521412     -152.777817      -52.392860
 C         -55.940426     -154.331848      -49.763226
 C         -54.379322     -153.031464      -51.429821
 C         -54.829792     -153.234863      -50.041729
 H         -57.820354     -154.715469      -50.635990
 H         -57.461800     -152.957184      -50.137753
 H         -55.192860     -152.951019      -53.379505
 H         -55.908424     -151.748123      -52.362572
 H         -55.543213     -155.255981      -50.032658
 H         -56.087795     -154.279266      -48.704178
 H         -53.554947     -152.306412      -51.434963
 H         -53.991657     -154.016510      -51.823215
 H         -53.927334     -153.600555      -49.419449
 H         -55.046837     -152.261810      -49.670727
