20
 generated by VMD
 C         -66.768166     -190.937958      -66.410545
 N         -67.825584     -190.490601      -66.601425
 H         -70.547867     -190.284729      -66.641365
 H         -65.874557     -191.290833      -66.001686
 C         -71.167099     -190.183777      -65.734909
 C         -72.293900     -191.199341      -65.511337
 C         -70.624313     -189.436798      -64.522896
 C         -73.224976     -190.724991      -64.428520
 C         -71.759186     -188.761658      -63.776894
 C         -72.735130     -189.807999      -63.328121
 H         -71.839508     -192.268494      -65.248672
 H         -72.782455     -191.371384      -66.505524
 H         -69.939812     -190.170319      -63.989040
 H         -69.875832     -188.762970      -65.064323
 H         -73.762070     -191.547760      -63.999912
 H         -73.990967     -190.154968      -64.940338
 H         -72.381737     -188.124512      -64.481033
 H         -71.434296     -188.152847      -62.897781
 H         -72.402664     -190.583572      -62.595840
 H         -73.508339     -189.205490      -62.824856
