20
 generated by VMD
 C          -1.037192      -10.705378        0.989782
 N          -1.574571       -9.713370        0.947890
 H          -3.470305      -12.608798        0.685920
 H          -4.385158      -12.004730        2.082211
 C          -4.114750      -12.956200        1.501813
 C          -3.270603      -13.925527        2.338637
 C          -5.329551      -13.570044        0.836453
 C          -4.150901      -14.775451        3.242746
 C          -6.176391      -14.345538        1.912128
 C          -5.343729      -15.416836        2.655208
 H          -2.516673      -13.344949        3.025646
 H          -2.617176      -14.595041        1.706092
 H          -5.976923      -12.810292        0.460341
 H          -5.016398      -14.295399        0.102678
 H          -4.468334      -13.991067        4.012934
 H          -3.485564      -15.448318        3.863043
 H          -7.114500      -14.765951        1.486466
 H          -6.499238      -13.633396        2.678308
 H          -5.856820      -15.981217        3.403667
 H          -5.027650      -16.128595        1.937839
