20
 generated by VMD
 C         -38.380379     -112.889191      -36.415951
 N         -37.225327     -112.738983      -36.381874
 H         -41.357815     -114.846550      -34.784393
 H         -39.365711     -113.218147      -36.313194
 C         -42.260216     -114.768127      -35.383259
 C         -42.128166     -114.694000      -36.895817
 C         -43.456429     -114.113388      -34.774174
 C         -43.384502     -114.941025      -37.634945
 C         -44.794731     -114.358070      -35.569092
 C         -44.500900     -114.123268      -37.090206
 H         -41.287731     -115.469353      -37.011456
 H         -41.638939     -113.703835      -37.124947
 H         -43.795677     -114.620377      -33.876865
 H         -43.308659     -113.056641      -34.551926
 H         -43.619137     -115.987709      -37.711563
 H         -43.182812     -114.636696      -38.692894
 H         -45.477268     -113.680542      -35.088570
 H         -45.091686     -115.416687      -35.500114
 H         -45.348541     -114.411339      -37.601646
 H         -44.279408     -113.063286      -37.249897
