20
 generated by VMD
 C         -19.910292      -64.038452      -16.422951
 N         -19.966574      -63.163174      -17.157635
 H         -23.659872      -63.246422      -17.176716
 H         -19.595530      -64.985069      -15.848243
 C         -24.150076      -64.193619      -17.583084
 C         -24.490822      -64.321289      -19.064562
 C         -24.323526      -65.266518      -16.582546
 C         -24.667330      -65.720245      -19.493889
 C         -24.751741      -66.636841      -17.072824
 C         -25.549801      -66.429344      -18.423048
 H         -23.673222      -63.681892      -19.573517
 H         -25.352427      -63.675529      -19.363340
 H         -23.225765      -65.330925      -16.110712
 H         -25.098480      -64.945953      -15.868320
 H         -23.638119      -66.156662      -19.559000
 H         -24.971954      -65.691017      -20.535812
 H         -25.429529      -67.137161      -16.321327
 H         -23.861525      -67.255196      -17.127665
 H         -25.779087      -67.458031      -18.895285
 H         -26.502426      -65.915489      -18.168547
