20
 generated by VMD
 C         -12.629738      -30.252100       -8.106990
 N         -13.119317      -30.619108       -7.178505
 H         -11.195781      -30.329927       -5.366704
 H         -10.733042      -30.783100       -3.780291
 C         -10.903880      -31.281317       -4.741091
 C          -9.597189      -31.812130       -5.260617
 C         -11.990572      -32.327194       -4.647013
 C          -9.050030      -33.052593       -4.600267
 C         -11.452501      -33.554489       -3.951664
 C         -10.147346      -34.108784       -4.558888
 H          -8.879214      -31.033363       -5.183193
 H          -9.725191      -32.128338       -6.366489
 H         -12.821686      -31.906170       -4.090714
 H         -12.415161      -32.659088       -5.586761
 H          -8.739478      -32.814697       -3.614282
 H          -8.231730      -33.442764       -5.139975
 H         -12.294723      -34.331039       -3.958959
 H         -11.229044      -33.278133       -2.951367
 H          -9.824699      -35.037148       -4.063853
 H         -10.328367      -34.478233       -5.542672
