20
 generated by VMD
 C         -29.991156      -80.134407      -26.492174
 N         -29.727327      -79.126587      -26.012400
 H         -28.574429      -82.870743      -25.660835
 H         -30.037870      -81.153854      -26.661352
 C         -29.247282      -82.849617      -24.764004
 C         -28.876789      -81.892349      -23.619545
 C         -30.010374      -84.132790      -24.526915
 C         -30.119379      -81.758591      -22.607491
 C         -31.194668      -83.911026      -23.574032
 C         -30.645180      -83.154976      -22.303732
 H         -28.485573      -80.928268      -23.948883
 H         -28.151306      -82.347252      -22.936651
 H         -30.269243      -84.386124      -25.582872
 H         -29.371382      -84.853340      -24.030396
 H         -30.952644      -81.171577      -23.151749
 H         -29.852690      -81.285217      -21.668304
 H         -31.515699      -84.977013      -23.260069
 H         -32.101681      -83.355400      -23.927608
 H         -31.506598      -83.144524      -21.713520
 H         -29.829742      -83.739861      -21.858330
