20
 generated by VMD
 C         -68.481087     -185.312668      -66.964302
 N         -67.711678     -186.177628      -66.982727
 H         -69.852959     -184.603317      -64.393120
 H         -69.167877     -184.437851      -66.785767
 C         -69.673874     -185.096329      -63.479736
 C         -70.821831     -185.154205      -62.510860
 C         -68.287514     -185.696014      -63.169449
 C         -70.359329     -185.383774      -61.099411
 C         -68.184265     -186.394760      -61.749355
 C         -69.573875     -186.659241      -61.000042
 H         -71.407913     -185.977615      -62.849766
 H         -71.282440     -184.172791      -62.575127
 H         -68.123497     -186.403809      -64.030830
 H         -67.543152     -184.948746      -63.133965
 H         -71.170334     -185.593262      -60.413700
 H         -69.843025     -184.521515      -60.748341
 H         -67.561272     -185.799393      -61.100658
 H         -67.682030     -187.328140      -61.899109
 H         -69.926651     -187.413696      -61.711563
 H         -69.324577     -186.961761      -59.920891
