20
 generated by VMD
 C         -41.383369     -102.366638      -34.439144
 N         -41.219112     -101.842697      -35.450684
 H         -39.700890     -104.132599      -32.384445
 H         -41.856083     -102.659004      -33.551273
 C         -38.641705     -104.249741      -31.992434
 C         -37.513123     -103.838379      -32.980629
 C         -38.172382     -105.393570      -30.981379
 C         -36.232319     -103.583496      -32.166439
 C         -36.908245     -104.955338      -30.283659
 C         -35.751736     -104.634613      -31.219923
 H         -37.954842     -103.009415      -33.501705
 H         -37.267765     -104.688438      -33.660053
 H         -38.942993     -105.522186      -30.312681
 H         -37.978256     -106.389801      -31.514849
 H         -36.338505     -102.688042      -31.436218
 H         -35.333969     -103.334808      -32.779282
 H         -36.536423     -105.772369      -29.723215
 H         -37.008751     -104.136093      -29.576958
 H         -34.830898     -104.346352      -30.628101
 H         -35.461502     -105.506889      -31.868744
