20
 generated by VMD
 C         -11.792373      -41.489697       -6.320368
 N         -10.915366      -42.088223       -6.606212
 H         -14.664199      -41.894646       -8.204256
 H         -15.187033      -40.927841       -9.394564
 C         -15.250786      -41.959450       -9.155029
 C         -16.688490      -42.318386       -8.807620
 C         -14.659194      -42.858772      -10.181564
 C         -17.564909      -42.475754      -10.064147
 C         -15.606263      -43.197048      -11.382492
 C         -17.060869      -43.571209      -10.996438
 H         -17.123026      -41.527409       -8.177450
 H         -16.590748      -43.268463       -8.268708
 H         -13.726621      -42.333466      -10.582471
 H         -14.418892      -43.820004       -9.645854
 H         -17.565514      -41.506329      -10.646001
 H         -18.558788      -42.854877       -9.787449
 H         -15.155647      -44.002525      -11.860880
 H         -15.592059      -42.377792      -12.180310
 H         -17.743742      -43.677643      -11.840886
 H         -17.076628      -44.590973      -10.556709
