20
 generated by VMD
 C          -2.787524      -17.891870        2.766756
 N          -2.294880      -17.408318        1.888424
 H          -5.316600      -18.952681        0.978181
 H          -5.400530      -19.758230       -0.556295
 C          -5.831191      -18.931162        0.024940
 C          -5.715143      -17.647219       -0.759858
 C          -7.260528      -19.381800        0.319269
 C          -6.499874      -17.901281       -2.105047
 C          -8.133406      -19.490187       -0.907529
 C          -7.997353      -18.228378       -1.794924
 H          -4.724265      -17.414700       -1.090313
 H          -6.171254      -16.751789       -0.259608
 H          -7.238940      -20.430454        0.748222
 H          -7.701901      -18.606949        1.124887
 H          -5.993060      -18.795689       -2.535349
 H          -6.415752      -16.975084       -2.766362
 H          -9.122062      -19.575254       -0.537305
 H          -7.843683      -20.331264       -1.542821
 H          -8.577508      -18.402203       -2.730530
 H          -8.434741      -17.369534       -1.300778
