20
 generated by VMD
 C         -55.912003     -149.168015      -45.810574
 N         -55.618530     -150.008011      -45.089436
 H         -54.489189     -148.259003      -48.174885
 H         -56.115597     -148.427216      -46.602531
 C         -54.205685     -147.434082      -48.761909
 C         -53.064121     -147.474304      -49.844906
 C         -54.761890     -145.980530      -48.531742
 C         -53.536537     -146.735657      -51.132328
 C         -55.333309     -145.333344      -49.849472
 C         -54.053146     -145.316269      -50.802914
 H         -52.696484     -148.468811      -50.059875
 H         -52.306713     -146.830444      -49.543324
 H         -55.584896     -146.071365      -47.825199
 H         -54.088844     -145.373245      -48.007885
 H         -54.319710     -147.347214      -51.564819
 H         -52.831150     -146.599335      -51.895348
 H         -55.813911     -144.414703      -49.729603
 H         -55.964115     -146.141464      -50.318672
 H         -54.446743     -144.953827      -51.765488
 H         -53.364166     -144.631104      -50.298935
