20
 generated by VMD
 C         -68.658997     -185.435257      -66.931252
 N         -67.677612     -184.953156      -66.586830
 H         -69.405861     -187.698547      -65.039276
 H         -69.681152     -185.759628      -67.222160
 C         -69.547340     -187.456482      -63.957386
 C         -69.779610     -186.041107      -63.798344
 C         -69.906273     -188.412354      -62.904453
 C         -69.648880     -185.552826      -62.341904
 C         -69.774132     -187.849991      -61.439697
 C         -70.348114     -186.421707      -61.274364
 H         -70.677910     -185.669662      -64.245964
 H         -68.994431     -185.520966      -64.310112
 H         -70.943108     -188.639923      -63.039795
 H         -69.440506     -189.378250      -63.192532
 H         -69.903351     -184.501190      -62.293285
 H         -68.549644     -185.532532      -62.017094
 H         -68.725471     -187.828049      -61.292797
 H         -70.322311     -188.497726      -60.826832
 H         -71.422325     -186.466370      -61.593254
 H         -70.306465     -185.820572      -60.296864
