20
 generated by VMD
 C         -19.958748      -57.399525      -16.861532
 N         -19.192568      -57.799625      -17.631460
 H         -22.705156      -59.343323      -16.954556
 H         -20.445732      -57.179531      -16.034220
 C         -22.602108      -60.426914      -16.517763
 C         -23.855228      -61.176559      -16.404787
 C         -21.340443      -60.825371      -15.877250
 C         -23.856339      -62.525181      -15.657208
 C         -21.290880      -62.272690      -15.253689
 C         -22.662380      -62.709698      -14.755017
 H         -24.199505      -61.349236      -17.392076
 H         -24.677704      -60.488308      -16.191666
 H         -20.541935      -60.775185      -16.627632
 H         -21.024044      -60.167393      -15.078793
 H         -23.866840      -63.318771      -16.377995
 H         -24.775028      -62.672661      -15.096370
 H         -20.750303      -62.283363      -14.310526
 H         -20.761684      -62.902126      -15.942611
 H         -22.582672      -63.722748      -14.366666
 H         -22.914177      -62.150597      -13.824120
