20
 generated by VMD
 C         -22.410376      -67.771591      -16.292503
 N         -21.350554      -67.728859      -15.844658
 H         -23.803604      -66.125008      -18.158791
 H         -23.548325      -67.926346      -16.568390
 C         -24.611071      -66.369896      -18.781757
 C         -23.973549      -66.939819      -20.006662
 C         -26.001553      -66.455788      -18.456224
 C         -24.447287      -68.329453      -20.306238
 C         -26.545654      -67.857018      -19.081482
 C         -25.971807      -68.309334      -20.425667
 H         -22.841295      -67.094543      -19.878103
 H         -24.086243      -66.261726      -20.849627
 H         -26.081306      -66.506683      -17.412842
 H         -26.548351      -65.655014      -19.006962
 H         -24.277985      -69.149506      -19.607605
 H         -24.060333      -68.680862      -21.337395
 H         -27.601456      -67.698654      -18.977484
 H         -26.293108      -68.649345      -18.305250
 H         -26.172405      -69.367050      -20.639900
 H         -26.444687      -67.831757      -21.300039
