20
 generated by VMD
 C         -41.528038     -119.335976      -34.553886
 N         -41.121063     -119.862793      -35.478729
 H         -43.404633     -118.474083      -36.553474
 H         -42.085457     -119.088997      -33.660328
 C         -43.740662     -118.068504      -37.525188
 C         -42.953846     -118.103638      -38.788975
 C         -45.109043     -117.467842      -37.571762
 C         -43.821430     -118.581421      -39.967716
 C         -45.850578     -117.895691      -38.897625
 C         -45.086243     -117.811768      -40.202717
 H         -42.058434     -118.725639      -38.578438
 H         -42.635345     -117.063805      -38.865002
 H         -45.622711     -117.918472      -36.705490
 H         -45.210762     -116.426338      -37.438477
 H         -43.996819     -119.602943      -39.682610
 H         -43.183903     -118.656754      -40.824383
 H         -46.727524     -117.255722      -39.110565
 H         -46.349560     -118.903435      -38.857018
 H         -45.679295     -118.332756      -41.048203
 H         -45.014542     -116.754448      -40.588631
