20
 generated by VMD
 C         -73.293190     -200.003769      -65.692429
 N         -73.820862     -200.790680      -65.007935
 H         -71.673454     -197.023712      -66.966751
 H         -72.853722     -199.285797      -66.419640
 C         -72.288025     -196.492203      -67.663689
 C         -73.365395     -195.562851      -67.170280
 C         -72.391418     -197.115250      -69.108742
 C         -74.249443     -195.056549      -68.264587
 C         -73.851143     -197.379257      -69.395157
 C         -74.771614     -196.227921      -69.121918
 H         -73.074272     -194.777954      -66.595764
 H         -73.922462     -196.274551      -66.506935
 H         -71.978416     -196.331284      -69.778847
 H         -71.761810     -198.074707      -69.117249
 H         -73.554596     -194.413071      -68.845772
 H         -75.031303     -194.371552      -67.925957
 H         -74.191628     -198.193451      -68.779312
 H         -73.942444     -197.837540      -70.420540
 H         -74.944527     -195.687485      -70.225410
 H         -75.728798     -196.647736      -68.915001
