20
 generated by VMD
 C         -29.320726      -90.429993      -25.007795
 N         -28.993874      -91.565384      -25.189837
 H         -32.295246      -91.393448      -27.256939
 H         -29.596500      -89.498695      -24.660362
 C         -33.089806      -90.859207      -27.799139
 C         -34.412510      -91.539078      -27.550936
 C         -33.052971      -89.680054      -28.620802
 C         -35.582436      -90.450722      -27.296757
 C         -34.271889      -88.755539      -28.369488
 C         -35.598335      -89.534233      -28.505857
 H         -34.260574      -92.126534      -26.651691
 H         -34.606361      -92.216751      -28.309589
 H         -32.192944      -89.066193      -28.276836
 H         -33.048813      -89.952385      -29.690331
 H         -35.398136      -90.155251      -26.264845
 H         -36.483570      -91.159935      -27.318367
 H         -34.282768      -87.976318      -29.161394
 H         -34.375092      -88.169167      -27.466949
 H         -36.548885      -88.898392      -28.513599
 H         -35.543835      -89.950157      -29.520239
