20
 generated by VMD
 C         -29.434320      -74.633713      -19.629278
 N         -30.445570      -74.435509      -20.105135
 H         -25.745962      -73.357407      -18.827356
 H         -28.564547      -75.100197      -19.015074
 C         -25.704994      -73.349434      -19.926970
 C         -25.327160      -74.634178      -20.730536
 C         -25.445810      -71.943642      -20.508385
 C         -26.020876      -74.542755      -22.144735
 C         -26.085400      -71.898659      -21.872114
 C         -25.666498      -73.165947      -22.721706
 H         -25.639620      -75.459038      -20.254774
 H         -24.214298      -74.650955      -20.814358
 H         -25.846390      -71.286095      -19.732447
 H         -24.375568      -71.777260      -20.659405
 H         -27.120003      -74.660721      -21.933531
 H         -25.641632      -75.312622      -22.825787
 H         -25.691227      -71.086311      -22.485411
 H         -27.289488      -71.850349      -21.895624
 H         -26.177187      -73.161499      -23.640514
 H         -24.622690      -73.052345      -22.943855
