20
 generated by VMD
 C         -62.501404     -174.112198      -55.122917
 N         -63.665989     -174.126266      -55.284225
 H         -62.548431     -172.535233      -58.214603
 H         -61.426533     -174.005051      -54.972679
 C         -63.072361     -171.635788      -58.421272
 C         -63.194199     -170.462402      -57.541073
 C         -64.150429     -171.974304      -59.386047
 C         -63.756531     -169.239456      -58.294121
 C         -64.589333     -170.748413      -60.125973
 C         -64.913437     -169.538696      -59.216084
 H         -62.090778     -170.171082      -57.123535
 H         -63.770435     -170.715805      -56.702572
 H         -63.788876     -172.701935      -60.163471
 H         -65.000137     -172.281876      -58.726578
 H         -63.028801     -168.667343      -58.842316
 H         -64.031731     -168.530685      -57.534924
 H         -65.481232     -171.089844      -60.663784
 H         -63.879002     -170.543930      -60.978497
 H         -65.277275     -168.657806      -59.764374
 H         -65.787628     -169.862381      -58.531139
