20
 generated by VMD
 C         -58.644119     -161.324509      -56.484013
 N         -58.462109     -160.171280      -56.618069
 H         -59.388638     -164.692322      -55.035370
 H         -58.866840     -162.379929      -56.314888
 C         -60.116085     -164.017853      -54.518867
 C         -59.632496     -163.468796      -53.210999
 C         -61.515625     -163.935822      -54.988091
 C         -60.327435     -162.163513      -53.014343
 C         -62.207363     -162.720734      -54.594189
 C         -61.851002     -162.237061      -53.220078
 H         -58.481350     -163.284897      -53.178738
 H         -59.610802     -164.343246      -52.418560
 H         -61.465748     -163.928574      -56.063168
 H         -62.098038     -164.861740      -54.737804
 H         -59.934036     -161.488251      -53.832668
 H         -60.185799     -161.808426      -52.050259
 H         -63.195229     -162.984070      -54.601654
 H         -61.989990     -161.918930      -55.252209
 H         -62.250660     -161.263916      -53.230885
 H         -62.341846     -162.861771      -52.484180
