20
 generated by VMD
 C         -30.404560      -92.796028      -26.142437
 N         -31.249222      -92.610558      -25.359716
 H         -33.115555      -90.267242      -26.196672
 H         -29.477448      -92.970383      -26.803988
 C         -33.390968      -90.673538      -27.168419
 C         -34.183563      -92.003166      -27.280470
 C         -33.148560      -90.062378      -28.476450
 C         -35.434654      -91.678024      -28.086573
 C         -34.453011      -89.797234      -29.236349
 C         -35.199673      -91.128555      -29.490885
 H         -34.451523      -92.191566      -26.335270
 H         -33.559956      -92.769249      -27.658030
 H         -32.574860      -89.131714      -28.415527
 H         -32.506207      -90.612259      -29.125631
 H         -36.237743      -91.044807      -27.591463
 H         -35.911304      -92.631294      -28.255968
 H         -34.185505      -89.328674      -30.181261
 H         -35.073822      -89.037704      -28.662983
 H         -36.238472      -91.108231      -30.012695
 H         -34.588181      -91.803246      -30.103262
