20
 generated by VMD
 C         -79.377594     -205.482178      -70.935707
 N         -80.406487     -205.858978      -71.257599
 H         -76.771263     -203.175156      -71.378677
 H         -78.471123     -205.196869      -70.366722
 C         -76.260368     -203.201492      -70.390160
 C         -75.289001     -202.118011      -70.070770
 C         -75.732300     -204.512695      -69.708038
 C         -73.919250     -202.417969      -70.622177
 C         -74.339714     -204.508636      -69.089043
 C         -73.298584     -203.677582      -69.799629
 H         -75.342018     -201.972885      -69.018044
 H         -75.667809     -201.139801      -70.467865
 H         -76.346024     -204.820755      -68.837227
 H         -75.887672     -205.346207      -70.423882
 H         -73.220665     -201.567383      -70.586784
 H         -74.002823     -202.868484      -71.656487
 H         -73.964134     -205.551666      -68.757767
 H         -74.455261     -203.966858      -68.169525
 H         -72.482841     -203.241806      -68.996826
 H         -72.627899     -204.168045      -70.551147
