20
 generated by VMD
 C         -71.503349     -199.020737      -64.625748
 N         -70.545555     -198.739746      -65.202637
 H         -72.271255     -196.603149      -66.368614
 H         -72.418144     -199.384003      -64.179733
 C         -72.840660     -195.973816      -67.042244
 C         -73.113724     -194.526993      -66.712418
 C         -73.367599     -196.426331      -68.401474
 C         -73.420258     -193.687286      -67.908600
 C         -74.689613     -195.782501      -68.871758
 C         -74.585991     -194.200073      -68.826134
 H         -72.284081     -194.110367      -66.109100
 H         -73.922913     -194.345764      -65.982841
 H         -72.494324     -196.404358      -69.137466
 H         -73.479599     -197.537933      -68.430420
 H         -72.534981     -193.729797      -68.509117
 H         -73.485519     -192.658752      -67.563927
 H         -75.575325     -196.220978      -68.369949
 H         -74.793686     -196.221313      -69.887352
 H         -74.619064     -193.721176      -69.892197
 H         -75.386841     -193.923737      -68.295372
