20
 generated by VMD
 C         -12.574910      -26.978415       -2.640878
 N         -12.560036      -27.782398       -1.866227
 H         -10.588885      -26.616594       -4.110542
 H          -9.334251      -26.122206       -5.219826
 C          -9.508047      -26.684158       -4.284322
 C          -8.981917      -28.062860       -4.584397
 C          -8.797491      -25.891703       -3.202636
 C          -7.463438      -28.334211       -4.407881
 C          -7.307772      -26.110346       -3.193400
 C          -6.883212      -27.522942       -3.263813
 H          -9.403750      -28.521435       -5.574666
 H          -9.456867      -28.762682       -3.923048
 H          -9.117122      -24.840704       -3.291308
 H          -9.248190      -26.240717       -2.297214
 H          -6.931515      -28.028276       -5.343119
 H          -7.183477      -29.429609       -4.366638
 H          -6.846640      -25.558306       -2.365302
 H          -6.946124      -25.550888       -4.109434
 H          -5.777601      -27.567516       -3.296050
 H          -7.184221      -27.952305       -2.331965
