20
 generated by VMD
 C         -57.965046     -150.607651      -48.725624
 N         -57.987858     -151.806290      -48.621159
 H         -55.047077     -149.380936      -47.540623
 H         -57.702019     -149.564865      -48.757999
 C         -55.036255     -149.246429      -48.635391
 C         -54.250484     -150.298309      -49.417233
 C         -55.011257     -147.724091      -48.884567
 C         -54.172703     -149.842453      -50.967857
 C         -55.076527     -147.434540      -50.371975
 C         -53.892960     -148.203659      -51.116409
 H         -54.752758     -151.242035      -49.223881
 H         -53.263504     -150.327072      -49.090820
 H         -55.894924     -147.324448      -48.427601
 H         -54.118332     -147.388275      -48.288734
 H         -55.060738     -150.149765      -51.541836
 H         -53.274090     -150.193665      -51.502163
 H         -54.942684     -146.328171      -50.460766
 H         -56.142963     -147.751251      -50.532433
 H         -53.734135     -148.006546      -52.120155
 H         -52.902462     -148.120956      -50.621464
