20
 generated by VMD
 C         -38.423622      -98.623444      -27.769886
 N         -38.373829      -99.699280      -27.364611
 H         -37.594761      -97.427757      -30.871048
 H         -38.316040      -97.670860      -28.196962
 C         -36.442154      -97.591835      -30.790272
 C         -35.664597      -98.089073      -31.955227
 C         -35.653271      -97.349495      -29.567837
 C         -34.383526      -97.310699      -32.182976
 C         -34.533081      -96.246696      -29.872377
 C         -33.614948      -96.729942      -30.981403
 H         -36.199478      -97.999512      -32.897964
 H         -35.455521      -99.189018      -31.839735
 H         -36.321709      -96.855598      -28.873989
 H         -35.367607      -98.259041      -29.091612
 H         -34.713448      -96.516457      -32.850479
 H         -33.659924      -98.072723      -32.740345
 H         -33.950905      -96.015831      -28.956369
 H         -34.923283      -95.319031      -30.138845
 H         -33.014126      -95.891243      -31.239361
 H         -32.909130      -97.518234      -30.598799
