20
 generated by VMD
 C         -19.816010      -61.457310      -16.790035
 N         -19.750801      -60.508324      -16.123043
 H         -22.083569      -62.300388      -18.216446
 H         -19.859539      -62.176456      -17.526094
 C         -22.825258      -62.924641      -17.768784
 C         -24.050529      -63.281998      -18.586857
 C         -22.831810      -62.921829      -16.268084
 C         -24.613449      -64.653496      -18.176010
 C         -23.464052      -64.290947      -15.853731
 C         -24.719379      -64.781342      -16.635765
 H         -23.824276      -63.344246      -19.637566
 H         -24.783875      -62.535995      -18.520420
 H         -21.860056      -62.689922      -15.801020
 H         -23.463011      -62.076576      -15.969495
 H         -23.852566      -65.450661      -18.582817
 H         -25.641396      -64.787323      -18.520811
 H         -23.835413      -64.123314      -14.812881
 H         -22.743198      -65.082619      -15.649439
 H         -24.820646      -65.902664      -16.557819
 H         -25.671160      -64.290878      -16.419271
