20
 generated by VMD
 C         -40.837082     -103.848404      -37.222172
 N         -40.599224     -104.720665      -36.496933
 H         -39.637615     -106.437073      -34.493771
 H         -40.890774     -103.200615      -38.059990
 C         -39.407303     -106.678207      -33.470764
 C         -38.082546     -106.323822      -32.917702
 C         -39.844688     -108.148628      -33.282433
 C         -37.924152     -106.852890      -31.416819
 C         -39.507874     -108.730293      -31.896631
 C         -38.157310     -108.449127      -31.436325
 H         -38.105358     -105.219078      -32.966293
 H         -37.299873     -106.542725      -33.577057
 H         -40.964001     -108.112915      -33.601696
 H         -39.400024     -108.648979      -34.140461
 H         -38.707970     -106.479675      -30.801233
 H         -36.953217     -106.550751      -30.994822
 H         -39.632351     -109.828270      -32.046600
 H         -40.308861     -108.542252      -31.210882
 H         -37.922401     -108.991295      -30.473684
 H         -37.438686     -108.843788      -32.175304
