20
 generated by VMD
 C         -45.750309     -123.687767      -35.550190
 N         -46.315357     -124.727348      -35.423786
 H         -44.733097     -122.151871      -38.156338
 H         -45.071449     -122.837776      -35.608921
 C         -44.711784     -121.581795      -39.072357
 C         -43.340923     -121.413963      -39.664062
 C         -45.805199     -120.680107      -39.518951
 C         -43.475815     -121.265053      -41.201130
 C         -45.854832     -120.555542      -41.046719
 C         -44.475624     -120.286621      -41.587124
 H         -42.558895     -122.063103      -39.307724
 H         -42.865749     -120.387573      -39.341404
 H         -46.674805     -121.298050      -39.196419
 H         -45.739017     -119.657166      -38.957729
 H         -43.618454     -122.282959      -41.659756
 H         -42.517780     -121.020149      -41.766876
 H         -46.430149     -119.695412      -41.416161
 H         -46.339294     -121.495522      -41.382156
 H         -44.463917     -120.204643      -42.736568
 H         -44.212238     -119.296684      -41.164825
