20
 generated by VMD
 C         -62.533459     -173.907242      -55.351078
 N         -63.675900     -174.146530      -55.100689
 H         -62.509323     -172.447266      -57.762360
 H         -61.497646     -173.571457      -55.485134
 C         -63.080193     -171.663956      -58.280472
 C         -62.892906     -170.229538      -57.670856
 C         -64.030571     -171.900818      -59.376896
 C         -63.773476     -169.131683      -58.327183
 C         -64.599495     -170.685074      -60.026390
 C         -65.058647     -169.577209      -59.035988
 H         -61.746490     -169.916977      -57.770100
 H         -63.096725     -170.285309      -56.581921
 H         -63.596989     -172.608505      -59.985424
 H         -64.851913     -172.542587      -59.034763
 H         -63.087948     -168.573837      -58.998173
 H         -64.138420     -168.407440      -57.474735
 H         -65.506653     -170.986282      -60.521038
 H         -63.917313     -170.295135      -60.705906
 H         -65.639008     -168.769501      -59.496574
 H         -65.735886     -170.111771      -58.277306
