20
 generated by VMD
 C         -57.670029     -165.157654      -56.567760
 N         -57.229095     -164.319489      -57.212597
 H         -60.205616     -164.624191      -54.090733
 H         -57.972618     -165.974716      -55.947155
 C         -61.199043     -164.733078      -54.431923
 C         -61.960999     -165.964050      -54.139965
 C         -61.554310     -164.110138      -55.686436
 C         -63.478199     -165.871338      -54.259800
 C         -63.033291     -163.954926      -55.883373
 C         -63.801018     -165.266998      -55.673935
 H         -61.695705     -166.185120      -53.070881
 H         -61.534882     -166.903839      -54.597733
 H         -61.264187     -163.051178      -55.760712
 H         -61.193954     -164.542358      -56.581577
 H         -63.903996     -165.175003      -53.460972
 H         -63.822529     -166.971222      -54.071621
 H         -63.299026     -163.499969      -57.007263
 H         -63.513798     -163.131836      -55.289974
 H         -64.825249     -165.119537      -55.605442
 H         -63.371532     -165.958633      -56.356361
