20
 generated by VMD
 C         -28.247362      -81.283768      -27.607609
 N         -29.362522      -81.052780      -27.456833
 H         -29.540562      -82.673828      -24.618046
 H         -27.123663      -81.457115      -27.832333
 C         -29.994684      -83.605263      -24.346893
 C         -30.048555      -83.935074      -22.870584
 C         -30.685474      -84.537445      -25.370838
 C         -31.558184      -84.247177      -22.454432
 C         -32.082863      -84.960617      -24.825161
 C         -32.172596      -85.202095      -23.371786
 H         -29.793386      -83.018082      -22.309269
 H         -29.386103      -84.797104      -22.644567
 H         -30.784239      -83.940018      -26.244602
 H         -30.025360      -85.393272      -25.546690
 H         -31.984982      -83.311432      -22.581078
 H         -31.748453      -84.735199      -21.402868
 H         -32.620598      -85.706001      -25.468863
 H         -32.627640      -84.102722      -24.980768
 H         -33.224594      -85.186653      -23.307425
 H         -31.870222      -86.270233      -23.147930
