20
 generated by VMD
 C         -68.886505     -180.136810      -62.302090
 N         -69.753548     -180.918198      -62.232822
 H         -66.751541     -180.551300      -59.148308
 H         -68.028915     -179.475662      -62.270477
 C         -66.378540     -179.725281      -59.677723
 C         -65.541771     -180.008942      -60.856209
 C         -66.142197     -178.463852      -58.887375
 C         -65.154961     -178.779037      -61.703621
 C         -66.158791     -177.303375      -59.866608
 C         -65.218170     -177.386826      -61.036072
 H         -66.109406     -180.679352      -61.530365
 H         -64.624969     -180.591202      -60.661633
 H         -66.889984     -178.573029      -58.035690
 H         -65.161705     -178.489304      -58.442802
 H         -65.943199     -178.684402      -62.539066
 H         -64.128090     -178.892349      -62.099167
 H         -66.051117     -176.373550      -59.320057
 H         -67.163261     -177.169281      -60.347340
 H         -65.045975     -176.670471      -61.756004
 H         -64.204231     -177.324448      -60.692436
