20
 generated by VMD
 C         -70.562256     -182.095383      -63.819965
 N         -69.532921     -182.638794      -63.998249
 H         -68.807404     -180.641953      -61.883625
 H         -71.536957     -181.589493      -63.595558
 C         -67.843941     -180.539871      -61.302914
 C         -67.174721     -181.892883      -61.045395
 C         -67.289658     -179.374405      -60.602180
 C         -65.719070     -181.906769      -60.905533
 C         -65.783958     -179.403854      -60.820938
 C         -65.234741     -180.623886      -60.191292
 H         -67.433327     -182.473907      -61.960190
 H         -67.657516     -182.388290      -60.126469
 H         -67.775047     -178.584900      -61.296001
 H         -67.574104     -179.238434      -59.544762
 H         -65.176361     -182.082947      -61.864201
 H         -65.383934     -182.710571      -60.237202
 H         -65.473129     -178.480133      -60.320362
 H         -65.487366     -179.230850      -61.848473
 H         -64.134361     -180.477753      -60.249615
 H         -65.482697     -180.751389      -59.142921
