20
 generated by VMD
 C         -41.468479     -120.181473      -33.962212
 N         -41.999603     -121.035789      -34.514454
 H         -43.478539     -119.078278      -37.148033
 H         -40.881775     -119.531860      -33.383877
 C         -43.966957     -118.845978      -38.153023
 C         -43.167065     -118.589577      -39.420841
 C         -45.289104     -118.219109      -38.093010
 C         -43.905056     -118.852493      -40.693050
 C         -46.117111     -118.340614      -39.383476
 C         -45.199909     -117.955269      -40.514202
 H         -42.289597     -119.154343      -39.294136
 H         -42.608471     -117.641380      -39.340714
 H         -45.824554     -118.529503      -37.275951
 H         -45.025848     -117.153488      -37.833061
 H         -44.166977     -119.929771      -40.956062
 H         -43.296635     -118.433792      -41.452278
 H         -47.081898     -117.683983      -39.323620
 H         -46.539909     -119.376205      -39.452431
 H         -45.701401     -118.001862      -41.496723
 H         -45.140991     -116.812019      -40.493763
