20
 generated by VMD
 C         -40.768650     -100.879211      -32.663174
 N         -41.510429     -101.121933      -31.845293
 H         -38.369339     -102.428162      -32.394928
 H         -40.299099     -100.611778      -33.638195
 C         -37.393871     -102.718529      -32.095982
 C         -36.025345     -102.802071      -32.760086
 C         -37.331024     -102.693382      -30.528618
 C         -35.373859     -101.472084      -32.397182
 C         -36.235867     -101.548637      -30.050726
 C         -35.011612     -101.478218      -30.891724
 H         -36.225666     -102.828598      -33.789803
 H         -35.437721     -103.683708      -32.490601
 H         -38.363937     -102.642838      -29.976686
 H         -36.839123     -103.611458      -30.227757
 H         -36.121712     -100.745941      -32.721710
 H         -34.528549     -101.268776      -32.968006
 H         -36.026390     -101.796516      -29.072439
 H         -36.751358     -100.509911      -30.014872
 H         -34.465092     -100.545776      -30.734966
 H         -34.435345     -102.366646      -30.664387
