20
 generated by VMD
 C         -60.485073     -169.905762      -55.152878
 N         -59.334137     -169.703552      -55.415787
 H         -63.349789     -170.698898      -56.915188
 H         -61.525642     -170.002121      -54.780586
 C         -63.242344     -169.580002      -56.939800
 C         -62.492153     -169.120010      -58.084885
 C         -64.142891     -168.720276      -56.046246
 C         -63.127075     -167.835861      -58.740314
 C         -64.719879     -167.527893      -56.765648
 C         -63.638805     -166.784424      -57.726826
 H         -62.469563     -169.876770      -58.854954
 H         -61.427570     -169.004181      -57.821186
 H         -64.971970     -169.305664      -55.770134
 H         -63.615746     -168.412308      -55.085243
 H         -63.866600     -168.334808      -59.470364
 H         -62.409851     -167.343277      -59.443253
 H         -65.016472     -166.817612      -55.984310
 H         -65.579521     -167.817108      -57.297108
 H         -64.155090     -165.910767      -58.203724
 H         -62.806759     -166.298141      -57.251518
