20
 generated by VMD
 C         -10.727434      -33.612694       -8.695326
 N         -11.060412      -32.770466       -9.362056
 H         -11.952737      -36.941147       -8.261644
 H         -12.023700      -36.077572       -6.768340
 C         -12.352594      -36.954765       -7.249051
 C         -11.949370      -38.188961       -6.465870
 C         -13.856952      -36.947117       -7.540042
 C         -12.865282      -38.484379       -5.255113
 C         -14.729461      -37.167286       -6.286251
 C         -14.352494      -38.487091       -5.548446
 H         -10.936957      -37.979343       -6.027171
 H         -11.942484      -39.068741       -7.152054
 H         -14.055984      -35.899891       -7.947755
 H         -14.026963      -37.715023       -8.285956
 H         -12.598246      -37.722679       -4.416923
 H         -12.708993      -39.493855       -4.868647
 H         -15.780489      -37.336300       -6.640386
 H         -14.807038      -36.385326       -5.607596
 H         -15.001026      -38.612457       -4.689982
 H         -14.535282      -39.375870       -6.149410
