20
 generated by VMD
 C         -49.703766     -127.749672      -40.221951
 N         -50.592716     -127.766197      -40.940643
 H         -47.125908     -127.486862      -42.102345
 H         -48.689899     -127.709435      -39.844273
 C         -46.763504     -126.783409      -41.437740
 C         -45.823158     -127.231316      -40.322582
 C         -46.850384     -125.326706      -41.471920
 C         -44.423233     -126.772972      -40.529007
 C         -45.474205     -124.664993      -41.842697
 C         -44.431950     -125.185738      -40.763145
 H         -45.896145     -128.263824      -40.056492
 H         -46.313309     -126.747765      -39.357365
 H         -47.583012     -125.004662      -42.242409
 H         -47.124100     -125.014885      -40.546417
 H         -43.743649     -127.255302      -41.301796
 H         -43.876572     -126.977158      -39.572407
 H         -45.319160     -123.597748      -41.643135
 H         -45.134865     -124.958183      -42.872189
 H         -43.402576     -124.925346      -40.909161
 H         -44.795807     -124.827339      -39.822681
