20
 generated by VMD
 C         -67.183685     -189.658417      -66.727592
 N         -66.642555     -189.099869      -67.593460
 H         -69.240440     -189.515503      -64.462372
 H         -67.615082     -190.361526      -66.067627
 C         -70.251945     -189.296585      -64.108650
 C         -71.147430     -190.447571      -63.840843
 C         -70.413246     -187.952362      -63.571484
 C         -72.548813     -189.890442      -64.163391
 C         -71.818970     -187.434219      -63.526993
 C         -72.823616     -188.580765      -63.295807
 H         -71.186958     -190.775787      -62.787231
 H         -70.894341     -191.182144      -64.587898
 H         -69.880035     -187.880615      -62.602554
 H         -69.940727     -187.313309      -64.232391
 H         -73.335579     -190.615829      -64.049370
 H         -72.626022     -189.643738      -65.273994
 H         -72.272659     -187.003387      -64.462929
 H         -71.935631     -186.597473      -62.820782
 H         -72.860390     -188.904816      -62.199368
 H         -73.757278     -188.238998      -63.611919
