20
 generated by VMD
 C         -12.736941      -43.249954       -6.949614
 N         -12.743649      -42.160194       -6.767403
 H         -14.648606      -43.743973       -8.279892
 H         -14.489608      -42.489902       -9.585855
 C         -15.079136      -43.425892       -9.251660
 C         -16.553143      -43.100620       -8.995405
 C         -14.950724      -44.413116      -10.413989
 C         -17.273542      -42.617615      -10.245670
 C         -15.525760      -43.808907      -11.693973
 C         -17.026070      -43.384758      -11.521581
 H         -16.659203      -42.341007       -8.173282
 H         -17.027586      -43.984051       -8.567634
 H         -13.842697      -44.712677      -10.576621
 H         -15.412769      -45.394611      -10.160903
 H         -17.032572      -41.564800      -10.404079
 H         -18.353798      -42.586460      -10.150388
 H         -15.488774      -44.549225      -12.483846
 H         -14.943832      -42.904045      -11.988462
 H         -17.330685      -42.669617      -12.312787
 H         -17.713085      -44.247959      -11.576320
