20
 generated by VMD
 C         -50.166882     -145.107071      -44.723484
 N         -49.531258     -144.234024      -44.393055
 H         -53.015095     -143.137268      -45.753647
 H         -50.756908     -145.946686      -44.916454
 C         -53.271187     -142.684280      -46.694462
 C         -52.421543     -142.442902      -47.985332
 C         -54.574192     -141.861359      -46.730183
 C         -53.353527     -142.849014      -49.220711
 C         -55.372997     -142.072311      -47.994850
 C         -54.631474     -141.972153      -49.217037
 H         -51.529789     -143.065567      -47.984543
 H         -52.155235     -141.409164      -48.382153
 H         -55.118702     -142.045380      -45.746380
 H         -53.991779     -140.810913      -46.683651
 H         -53.731289     -143.965347      -49.172340
 H         -52.711918     -142.745819      -50.172894
 H         -56.270844     -141.441650      -48.052002
 H         -55.861393     -143.127029      -47.998085
 H         -55.255531     -142.344360      -50.093578
 H         -54.379936     -140.826141      -49.521152
