20
 generated by VMD
 C         -21.049698      -52.274776       -9.599627
 N         -21.331203      -52.428719      -10.744797
 H         -19.159470      -50.039494      -11.538998
 H         -20.604965      -51.959518       -8.813597
 C         -18.320314      -50.079006      -12.284644
 C         -17.791918      -51.437614      -12.720265
 C         -17.430225      -48.881886      -12.238244
 C         -16.838015      -51.428974      -13.941278
 C         -16.483648      -48.938953      -13.439240
 C         -15.843067      -50.324894      -13.653913
 H         -18.642025      -52.135036      -12.814290
 H         -17.161730      -51.747021      -11.903156
 H         -18.005762      -47.947540      -12.265632
 H         -16.816181      -48.944748      -11.358140
 H         -17.436256      -51.256283      -14.815521
 H         -16.404350      -52.425610      -14.130952
 H         -15.597973      -48.272373      -13.201149
 H         -16.924391      -48.471603      -14.299183
 H         -15.051942      -50.323536      -14.463881
 H         -15.357962      -50.604427      -12.688818
