20
 generated by VMD
 C          -1.207014      -13.140549        1.005373
 N          -0.499842      -12.980308        0.128452
 H          -4.346298      -13.064909        1.574469
 H          -5.692446      -13.359981        0.584413
 C          -5.118168      -13.822524        1.385359
 C          -5.913418      -14.242641        2.613739
 C          -4.361449      -14.985100        0.724885
 C          -6.888296      -15.372539        2.241858
 C          -5.272873      -16.155222        0.412162
 C          -6.096697      -16.537722        1.615361
 H          -6.352472      -13.382422        3.116826
 H          -5.144049      -14.584247        3.361353
 H          -3.961547      -14.626934       -0.220498
 H          -3.517423      -15.190543        1.341952
 H          -7.692991      -15.035622        1.526888
 H          -7.437505      -15.759753        3.118589
 H          -4.688629      -16.982395       -0.022041
 H          -5.978356      -15.809260       -0.379488
 H          -6.794199      -17.395279        1.425297
 H          -5.458004      -16.926178        2.447120
