20
 generated by VMD
 C         -50.715775     -129.090851      -44.458462
 N         -50.938049     -130.268036      -44.331474
 H         -49.034100     -127.992500      -41.169132
 H         -50.365875     -128.087418      -44.772617
 C         -48.090439     -128.489197      -41.245842
 C         -47.815472     -129.897293      -41.042599
 C         -47.112782     -127.563072      -40.788319
 C         -46.397453     -130.297714      -41.423523
 C         -45.774807     -127.920227      -41.377422
 C         -45.266529     -129.343414      -41.025372
 H         -48.499802     -130.418884      -41.671085
 H         -48.212559     -130.157608      -40.027908
 H         -47.443256     -126.521400      -41.156189
 H         -47.194515     -127.610146      -39.748436
 H         -46.429943     -130.561020      -42.495583
 H         -46.212688     -131.302139      -41.002007
 H         -44.940083     -127.190147      -41.083069
 H         -45.779922     -127.879219      -42.564960
 H         -44.298443     -129.525070      -41.534092
 H         -45.066315     -129.490479      -40.018410
