20
 generated by VMD
 C         -33.713730      -96.106346      -25.274002
 N         -33.320839      -97.156242      -25.568869
 H         -34.650990      -94.292702      -27.497757
 H         -33.994957      -95.135658      -24.803326
 C         -34.774864      -93.724785      -28.435902
 C         -36.022621      -94.112938      -29.181206
 C         -33.532928      -93.482773      -29.150915
 C         -36.159267      -93.288383      -30.502598
 C         -33.837379      -92.596451      -30.375702
 C         -34.867081      -93.280869      -31.381067
 H         -36.897766      -93.763901      -28.563913
 H         -36.118610      -95.167496      -29.269564
 H         -32.916389      -92.976234      -28.353710
 H         -32.967907      -94.359436      -29.458025
 H         -36.490356      -92.243233      -30.309837
 H         -36.912418      -93.787224      -31.105547
 H         -32.828178      -92.330292      -30.852697
 H         -34.368919      -91.746956      -30.063803
 H         -34.915424      -92.645065      -32.386425
 H         -34.656921      -94.427849      -31.672773
