20
 generated by VMD
 C         -13.631750      -43.988132       -6.758085
 N         -13.623594      -43.890347       -5.640232
 H         -14.846811      -44.869011       -9.155844
 H         -14.453130      -43.791088      -10.570941
 C         -15.233662      -44.395962      -10.023656
 C         -16.380453      -43.482075       -9.655149
 C         -15.647301      -45.555763      -10.949948
 C         -16.953382      -42.914627      -10.960317
 C         -16.015785      -45.004929      -12.300733
 C         -17.135300      -43.953106      -12.123711
 H         -16.021244      -42.671986       -9.074304
 H         -17.115932      -44.034523       -9.072186
 H         -14.800933      -46.217129      -11.092694
 H         -16.552591      -46.001778      -10.521149
 H         -16.325417      -42.084183      -11.331711
 H         -17.951454      -42.458763      -10.787261
 H         -16.326847      -45.835972      -12.844805
 H         -15.208229      -44.464512      -12.840604
 H         -17.357841      -43.399368      -13.037956
 H         -18.076794      -44.510891      -11.869360
