20
 generated by VMD
 C         -79.005379     -204.261063      -70.517616
 N         -80.009308     -204.889862      -70.610214
 H         -76.722610     -203.420746      -68.728065
 H         -78.002861     -203.777451      -70.311874
 C         -75.819511     -203.164215      -69.225136
 C         -75.815544     -202.041794      -70.227783
 C         -74.608627     -203.965820      -68.879524
 C         -74.396179     -201.468536      -70.552795
 C         -73.249832     -203.302597      -69.007294
 C         -73.275497     -202.395767      -70.337189
 H         -76.385551     -201.207855      -69.770065
 H         -76.347557     -202.454559      -71.083298
 H         -74.765572     -204.499100      -67.879524
 H         -74.685898     -204.788666      -69.586487
 H         -74.281181     -200.569229      -69.964149
 H         -74.360909     -201.207016      -71.617363
 H         -72.293671     -203.956055      -69.015518
 H         -73.132851     -202.670761      -68.170006
 H         -72.302956     -201.862656      -70.562698
 H         -73.228348     -203.125580      -71.176674
