20
 generated by VMD
 C         -69.379608     -180.938858      -62.321907
 N         -70.171951     -180.092499      -62.254642
 H         -67.004280     -181.296753      -60.310963
 H         -68.626732     -181.693665      -62.293221
 C         -66.496185     -180.408218      -60.473991
 C         -65.015533     -180.427505      -60.550030
 C         -67.174423     -179.280701      -59.846497
 C         -64.422455     -179.149002      -61.191853
 C         -66.722008     -177.953415      -60.585449
 C         -65.095551     -177.840500      -60.728477
 H         -64.725647     -181.353287      -61.120232
 H         -64.518143     -180.679352      -59.496815
 H         -68.227776     -179.316071      -59.770416
 H         -66.790298     -179.168930      -58.807774
 H         -64.562546     -179.068924      -62.317932
 H         -63.331429     -179.125519      -60.986507
 H         -67.080704     -177.170212      -59.903244
 H         -67.287308     -177.710464      -61.482208
 H         -65.025993     -176.926651      -61.407097
 H         -64.645012     -177.401321      -59.687302
