20
 generated by VMD
 C         -10.534512      -33.234310       -8.764538
 N         -11.372499      -33.638191       -9.408777
 H         -12.952790      -33.752464       -6.065506
 H         -13.132361      -34.796577       -4.649509
 C         -12.963532      -34.805161       -5.714631
 C         -11.577357      -35.444645       -5.877384
 C         -14.142646      -35.624699       -6.214354
 C         -11.525628      -36.924324       -5.521402
 C         -13.995704      -37.042538       -5.714864
 C         -12.696785      -37.710270       -6.168589
 H         -10.810102      -34.869194       -5.359973
 H         -11.361241      -35.336422       -6.962773
 H         -15.000811      -35.061546       -5.828087
 H         -14.176052      -35.606068       -7.295871
 H         -11.579515      -37.119698       -4.399092
 H         -10.583472      -37.457085       -5.761906
 H         -14.903611      -37.712330       -5.921882
 H         -13.951756      -37.005939       -4.638682
 H         -12.638125      -38.664707       -5.740497
 H         -12.588642      -37.763073       -7.257647
