20
 generated by VMD
 C         -11.388935      -33.995049       -8.309822
 N         -10.712774      -34.403812       -9.131956
 H         -11.647466      -37.671276       -7.892613
 H         -12.462314      -37.175552       -6.474035
 C         -12.580256      -37.878784       -7.295702
 C         -12.538210      -39.250633       -6.670434
 C         -13.865621      -37.689789       -8.048544
 C         -13.767645      -39.586758       -5.845490
 C         -15.116250      -38.128277       -7.235170
 C         -14.969360      -39.487350       -6.735145
 H         -11.665021      -39.324245       -5.967557
 H         -12.339919      -39.962734       -7.485993
 H         -13.913177      -36.614193       -8.418925
 H         -13.867142      -38.240665       -8.960862
 H         -13.935806      -39.005627       -4.915338
 H         -13.651919      -40.582260       -5.449159
 H         -15.994744      -38.183830       -7.944050
 H         -15.378987      -37.468792       -6.481453
 H         -15.856878      -39.843872       -6.219068
 H         -14.831092      -40.116730       -7.596646
