20
 generated by VMD
 C         -30.091667      -74.042915      -20.672739
 N         -29.945572      -75.162262      -20.334873
 H         -27.478384      -74.570053      -19.446793
 H         -30.049944      -73.016426      -20.958511
 C         -26.642000      -74.351997      -20.072958
 C         -26.141491      -75.434700      -20.943106
 C         -26.059561      -72.996948      -20.360294
 C         -25.962469      -75.115852      -22.419516
 C         -25.861816      -72.639664      -21.911697
 C         -25.255243      -73.776901      -22.762966
 H         -26.777138      -76.418610      -20.832031
 H         -25.114353      -75.685593      -20.624327
 H         -26.709837      -72.382210      -19.696075
 H         -24.984938      -73.066055      -19.863016
 H         -26.979853      -75.168404      -22.728571
 H         -25.420839      -75.885262      -22.976603
 H         -25.390343      -71.584717      -22.077652
 H         -26.879740      -72.482529      -22.349718
 H         -25.447130      -73.538780      -23.808977
 H         -24.189911      -73.848846      -22.571676
