20
 generated by VMD
 C          -2.143455      -16.865902        2.847907
 N          -2.367547      -16.202814        1.980941
 H          -4.502008      -15.706932        0.069264
 H          -4.387723      -17.094017       -1.028621
 C          -5.042901      -16.562193       -0.289039
 C          -6.265833      -16.018295       -1.022542
 C          -5.414630      -17.616245        0.795915
 C          -7.391420      -17.000977       -1.288359
 C          -6.360337      -18.663448        0.277963
 C          -7.674329      -17.908480       -0.110650
 H          -5.926675      -15.381289       -1.864690
 H          -6.757176      -15.288582       -0.361737
 H          -4.512239      -17.942892        1.231948
 H          -5.810286      -17.111168        1.630605
 H          -7.245080      -17.532913       -2.245210
 H          -8.286341      -16.383020       -1.472342
 H          -6.616502      -19.392872        1.013045
 H          -6.012735      -19.218401       -0.601785
 H          -8.421683      -18.668238       -0.360238
 H          -8.011486      -17.351078        0.781733
