20
 generated by VMD
 C         -19.995428      -56.249050      -16.771124
 N         -21.042425      -56.410061      -16.310501
 H         -22.059427      -59.504868      -17.305071
 H         -19.098381      -56.146626      -17.562464
 C         -22.533203      -60.204739      -16.694302
 C         -22.824648      -59.595497      -15.325561
 C         -21.901888      -61.610058      -16.638218
 C         -21.487082      -59.732208      -14.420236
 C         -20.815487      -61.927681      -15.516041
 C         -21.294407      -61.244728      -14.161781
 H         -23.685148      -60.046066      -14.858497
 H         -23.042515      -58.578930      -15.447999
 H         -22.714703      -62.394863      -16.627590
 H         -21.390270      -61.807552      -17.601019
 H         -21.671919      -59.303902      -13.387548
 H         -20.662580      -59.238811      -14.942655
 H         -19.853815      -61.441544      -15.696641
 H         -20.686472      -62.990891      -15.273706
 H         -22.139877      -61.747742      -13.618415
 H         -20.457472      -61.396000      -13.470064
