20
 generated by VMD
 C          -1.642514      -13.091146        0.655350
 N          -0.786367      -13.799396        0.615769
 H          -3.970190      -14.394216        1.967672
 H          -4.694922      -14.216696        0.378753
 C          -4.745661      -14.769320        1.296623
 C          -6.002326      -14.698803        2.165861
 C          -4.419329      -16.245472        0.991145
 C          -7.209333      -15.362767        1.346094
 C          -5.507984      -16.962906        0.269115
 C          -6.809850      -16.761873        1.011305
 H          -6.268554      -13.651755        2.416185
 H          -5.932857      -15.362664        3.085291
 H          -3.534261      -16.238943        0.346220
 H          -4.058324      -16.774462        1.923680
 H          -7.368829      -14.756665        0.481971
 H          -8.093816      -15.381501        1.940625
 H          -5.346011      -18.004360        0.137001
 H          -5.597333      -16.557909       -0.729246
 H          -7.638999      -17.339874        0.547213
 H          -6.580087      -17.229530        1.971288
