20
 generated by VMD
 C         -67.832878     -179.512558      -58.756145
 N         -68.096199     -179.730499      -59.876518
 H         -67.314453     -176.311478      -59.596626
 H         -67.513809     -179.363541      -57.701702
 C         -66.433846     -176.756821      -60.154606
 C         -66.148529     -176.175156      -61.447529
 C         -65.221283     -177.231476      -59.244308
 C         -65.105736     -175.088837      -61.257553
 C         -64.246559     -176.075790      -59.025074
 C         -63.794735     -175.537598      -60.446651
 H         -67.076714     -175.718719      -61.849815
 H         -65.869904     -176.756638      -62.339886
 H         -65.745110     -177.547333      -58.363342
 H         -64.814827     -178.200821      -59.644417
 H         -65.489876     -174.139328      -60.790516
 H         -64.676819     -174.738831      -62.282074
 H         -63.351727     -176.548477      -58.527386
 H         -64.801170     -175.365143      -58.392857
 H         -62.974979     -174.795456      -60.495171
 H         -63.294426     -176.327652      -61.135544
