20
 generated by VMD
 C         -67.700050     -191.726456      -67.142769
 N         -66.824005     -192.435059      -66.785637
 H         -70.629494     -189.262360      -66.287468
 H         -68.541077     -190.981735      -67.254669
 C         -71.283951     -189.735489      -65.535088
 C         -71.751732     -191.138657      -65.703438
 C         -71.310547     -189.274658      -64.154449
 C         -73.158112     -191.290436      -65.360596
 C         -72.658913     -189.501282      -63.488880
 C         -73.306114     -190.872925      -63.829372
 H         -71.170067     -191.782608      -65.064499
 H         -71.600922     -191.358871      -66.827026
 H         -70.526474     -189.764908      -63.607918
 H         -71.075951     -188.159195      -64.007507
 H         -73.545174     -192.229019      -65.582169
 H         -73.754105     -190.538864      -65.857971
 H         -73.436302     -188.806671      -63.662365
 H         -72.469925     -189.538727      -62.453480
 H         -72.869270     -191.676773      -63.383945
 H         -74.290611     -190.923172      -63.323841
