20
 generated by VMD
 C         -61.345005     -154.753098      -53.796085
 N         -61.774075     -155.094238      -52.829006
 H         -58.020927     -155.034592      -52.275490
 H         -61.039700     -154.423279      -54.790657
 C         -57.140362     -154.631424      -51.798355
 C         -57.247952     -154.215652      -50.390579
 C         -55.886314     -154.223969      -52.543224
 C         -56.207825     -154.681198      -49.413826
 C         -54.689598     -154.596451      -51.633427
 C         -54.775253     -154.178696      -50.156784
 H         -58.138676     -154.519577      -49.833595
 H         -57.335091     -153.102737      -50.495243
 H         -55.810337     -154.676254      -53.516674
 H         -56.098927     -153.120438      -52.567020
 H         -56.278164     -155.869278      -49.315536
 H         -56.183876     -154.144409      -48.428589
 H         -53.784538     -154.212769      -52.046295
 H         -54.659145     -155.767746      -51.560276
 H         -53.970139     -154.594910      -49.561077
 H         -54.611080     -153.116516      -50.025223
