20
 generated by VMD
 C         -10.692668      -35.644783       -9.223386
 N         -10.221572      -34.909531       -8.487662
 H         -13.018660      -36.812759       -6.687479
 H         -14.151014      -37.752777       -5.744966
 C         -13.631649      -37.729015       -6.729181
 C         -12.853741      -39.043335       -6.563589
 C         -14.606828      -37.764347       -7.937821
 C         -13.779909      -40.258091       -6.576770
 C         -15.632403      -38.948032       -7.722551
 C         -14.906272      -40.255356       -7.666902
 H         -12.248502      -39.076229       -5.611398
 H         -12.049237      -39.038570       -7.380765
 H         -15.035684      -36.800488       -8.105140
 H         -13.995527      -37.878510       -8.875193
 H         -14.261687      -40.363583       -5.617368
 H         -13.211295      -41.238583       -6.588815
 H         -16.304037      -38.969654       -8.509022
 H         -16.236946      -38.819065       -6.783401
 H         -15.609668      -41.046211       -7.549093
 H         -14.384212      -40.396137       -8.625311
