20
 generated by VMD
 C         -13.334073      -28.750612       -6.472451
 N         -13.161963      -28.800030       -7.575003
 H         -12.001915      -30.629728       -5.031903
 H         -10.454981      -29.773891       -4.492820
 C         -10.995333      -30.767668       -4.637543
 C         -10.099260      -31.503725       -5.640251
 C         -10.951625      -31.471878       -3.249681
 C          -8.716301      -31.852098       -5.130361
 C          -9.479023      -31.507015       -2.674928
 C          -8.558650      -32.223972       -3.685098
 H          -9.886946      -31.015495       -6.575741
 H         -10.668396      -32.414158       -5.885484
 H         -11.579602      -30.935556       -2.569659
 H         -11.320823      -32.490860       -3.357927
 H          -8.088756      -30.960560       -5.318894
 H          -8.224159      -32.644402       -5.722963
 H          -9.511481      -32.007965       -1.650673
 H          -9.133535      -30.516703       -2.531575
 H          -7.467695      -32.033848       -3.467495
 H          -8.743279      -33.344692       -3.642097
