20
 generated by VMD
 C         -28.479225      -74.050232      -18.695971
 N         -29.410831      -73.603043      -18.231594
 H         -25.413343      -72.400520      -18.718031
 H         -27.728771      -74.419510      -19.428768
 C         -25.549536      -72.364304      -19.860771
 C         -24.833487      -73.446167      -20.667913
 C         -25.862528      -71.025665      -20.469923
 C         -25.457022      -73.578926      -22.106512
 C         -26.185705      -71.044235      -21.916807
 C         -25.491766      -72.112274      -22.776665
 H         -24.937635      -74.289185      -20.111282
 H         -23.782713      -73.138458      -20.809544
 H         -26.684158      -70.603767      -19.828300
 H         -25.015190      -70.378746      -20.392557
 H         -26.510780      -73.834419      -21.934647
 H         -24.943659      -74.379364      -22.656683
 H         -25.999699      -70.120438      -22.332308
 H         -27.241102      -71.091042      -22.089470
 H         -25.887308      -72.141327      -23.820303
 H         -24.432846      -71.726372      -22.872051
