20
 generated by VMD
 C         -70.368736     -182.429031      -63.672474
 N         -69.489899     -182.851089      -64.356606
 H         -68.472557     -180.384155      -62.395622
 H         -71.176003     -182.076416      -63.075974
 C         -67.861206     -180.446564      -61.509377
 C         -67.563347     -181.828796      -61.075695
 C         -67.221664     -179.382050      -60.847946
 C         -66.030304     -182.096405      -61.052593
 C         -65.751122     -179.621521      -60.517265
 C         -65.351761     -181.088730      -60.166405
 H         -68.038467     -182.632919      -61.638161
 H         -67.934395     -182.111038      -60.065113
 H         -67.476501     -178.445801      -61.407681
 H         -67.758690     -179.193756      -59.956478
 H         -65.675903     -181.934219      -62.001755
 H         -65.750633     -183.030411      -60.729488
 H         -65.390610     -178.879395      -59.785351
 H         -65.216476     -179.496796      -61.477604
 H         -64.213440     -181.202560      -60.219193
 H         -65.679604     -181.440872      -59.197121
