20
 generated by VMD
 C         -79.508125     -205.383209      -71.755150
 N         -79.792801     -206.478821      -71.574829
 H         -77.104279     -204.032822      -71.847855
 H         -79.307060     -204.343887      -71.698677
 C         -76.390617     -204.178986      -71.053596
 C         -75.469475     -203.013535      -70.796562
 C         -76.451302     -205.336090      -70.166023
 C         -74.178024     -203.452255      -70.067009
 C         -75.228111     -205.412476      -69.123184
 C         -73.860489     -204.873001      -69.764893
 H         -76.065186     -202.247406      -70.223862
 H         -75.195854     -202.601257      -71.735725
 H         -77.471634     -205.329544      -69.520889
 H         -76.496170     -206.259140      -70.822327
 H         -74.068047     -202.821899      -69.127083
 H         -73.384972     -202.982742      -70.696228
 H         -75.173279     -206.505768      -68.832153
 H         -75.315086     -204.943680      -68.209709
 H         -73.089638     -204.908386      -68.963966
 H         -73.537292     -205.457092      -70.573456
