20
 generated by VMD
 C         -30.319315      -75.188484      -20.998596
 N         -31.457977      -75.322830      -20.888826
 H         -27.679705      -74.911026      -19.580456
 H         -29.371801      -75.142479      -21.535755
 C         -27.052055      -74.673981      -20.487341
 C         -26.648991      -75.817635      -21.363640
 C         -26.037590      -73.615471      -20.401884
 C         -26.044542      -75.521164      -22.652401
 C         -25.320215      -73.229904      -21.766815
 C         -24.850668      -74.478722      -22.608141
 H         -27.345184      -76.634842      -21.342686
 H         -25.841017      -76.437828      -20.876881
 H         -26.610346      -72.692314      -19.903860
 H         -25.152199      -73.889824      -19.733578
 H         -26.868273      -75.150612      -23.219353
 H         -25.752903      -76.444168      -23.157633
 H         -24.522652      -72.445190      -21.600910
 H         -26.044182      -72.619209      -22.498966
 H         -24.711964      -74.123795      -23.658346
 H         -24.010906      -75.043785      -22.169258
