20
 generated by VMD
 C          -1.537858       -9.200463       -0.007416
 N          -2.590874       -9.090487        0.233593
 H          -2.551661      -10.573143        2.351169
 H          -2.215035      -11.725042        3.696965
 C          -2.857479      -11.475726        2.902054
 C          -2.650206      -12.707959        2.052804
 C          -4.249135      -11.255332        3.485057
 C          -3.321410      -13.918214        2.650194
 C          -4.797693      -12.569773        4.122225
 C          -4.780652      -13.665542        3.105177
 H          -1.576547      -12.923513        2.024444
 H          -3.025788      -12.534327        0.999203
 H          -4.387678      -10.464524        4.221267
 H          -5.065950      -10.990468        2.726806
 H          -2.758214      -14.247576        3.565784
 H          -3.303646      -14.726257        1.902427
 H          -5.807318      -12.445019        4.520836
 H          -4.157746      -12.849183        4.999493
 H          -5.129275      -14.529040        3.660987
 H          -5.433738      -13.548930        2.259045
