20
 generated by VMD
 C         -68.830399     -188.470032      -66.914574
 N         -68.291702     -189.471848      -66.632622
 H         -68.369339     -187.598160      -63.201611
 H         -69.236069     -187.434784      -67.112762
 C         -69.402122     -187.868240      -63.321281
 C         -69.600174     -189.316193      -63.366554
 C         -70.447800     -186.928436      -63.025658
 C         -70.785194     -189.623993      -64.305206
 C         -71.784187     -187.263062      -63.744465
 C         -72.069809     -188.742996      -63.736931
 H         -69.639977     -189.774536      -62.371250
 H         -68.685959     -189.724197      -63.827461
 H         -70.566757     -187.003891      -61.968681
 H         -70.095985     -185.975937      -63.430325
 H         -70.994469     -190.709595      -64.321495
 H         -70.631233     -189.368317      -65.334869
 H         -71.719635     -186.765060      -64.737251
 H         -72.588951     -186.920578      -63.064613
 H         -72.041977     -189.157700      -62.705948
 H         -72.946465     -188.947525      -64.174393
