20
 generated by VMD
 C         -13.565419      -43.191238       -6.293837
 N         -12.909162      -42.736267       -7.093124
 H         -14.709557      -44.535015       -8.556581
 H         -14.227892      -43.219963       -9.593083
 C         -14.990481      -43.939762       -9.477192
 C         -16.416462      -43.380009       -9.148911
 C         -15.140495      -44.820660      -10.677940
 C         -17.060986      -42.638847      -10.363953
 C         -15.649324      -44.026188      -11.856357
 C         -17.071819      -43.476212      -11.638176
 H         -16.430592      -42.848251       -8.198491
 H         -17.053394      -44.223339       -8.984800
 H         -14.266748      -45.394737      -10.948461
 H         -15.810277      -45.656277      -10.476635
 H         -16.563646      -41.665951      -10.483979
 H         -18.126917      -42.426857      -10.139754
 H         -15.579018      -44.670795      -12.798121
 H         -14.958758      -43.238361      -11.946200
 H         -17.295671      -42.776367      -12.485039
 H         -17.777018      -44.321156      -11.620697
