20
 generated by VMD
 C         -41.478432     -119.316124      -34.581665
 N         -40.943089     -119.718483      -35.501999
 H         -43.508022     -118.205956      -36.534981
 H         -42.098045     -118.954880      -33.820282
 C         -43.854782     -117.950089      -37.588291
 C         -42.883823     -118.095406      -38.733452
 C         -45.187778     -117.296875      -37.600613
 C         -43.689476     -118.583817      -39.924767
 C         -45.957642     -117.921494      -38.800896
 C         -45.043438     -117.732529      -40.044285
 H         -42.022675     -118.779442      -38.639549
 H         -42.488575     -117.078438      -38.941048
 H         -45.726013     -117.564514      -36.709621
 H         -44.951283     -116.262550      -37.569954
 H         -44.030914     -119.601418      -39.757397
 H         -43.263622     -118.520172      -40.869843
 H         -46.817123     -117.232895      -38.980724
 H         -46.261028     -118.977020      -38.540535
 H         -45.564243     -118.032158      -40.996727
 H         -44.715324     -116.641670      -40.089115
