20
 generated by VMD
 C         -19.877951      -61.730000      -16.316725
 N         -20.056627      -61.122906      -17.289619
 H         -21.655886      -63.355652      -17.362926
 H         -19.883541      -62.389736      -15.527534
 C         -22.634178      -63.767654      -17.372574
 C         -23.466452      -63.626740      -18.616169
 C         -23.222328      -64.119789      -16.098969
 C         -24.554531      -64.661713      -18.559250
 C         -24.389502      -65.023735      -16.171513
 C         -25.391743      -64.725868      -17.275122
 H         -22.775906      -63.803310      -19.413340
 H         -23.879915      -62.629311      -18.632679
 H         -22.397863      -64.369156      -15.499599
 H         -23.538145      -63.175419      -15.660891
 H         -24.023441      -65.610771      -18.628885
 H         -25.135052      -64.713570      -19.532711
 H         -24.861797      -65.072739      -15.207054
 H         -23.952684      -66.053177      -16.321438
 H         -26.036438      -65.597198      -17.475025
 H         -26.044151      -63.801701      -17.265980
