20
 generated by VMD
 C         -22.778946      -52.399368      -12.039369
 N         -23.227064      -52.499290      -11.003270
 H         -19.985083      -52.841076      -13.844416
 H         -22.593542      -52.411201      -13.112728
 C         -18.958447      -52.906025      -13.847863
 C         -18.121147      -52.039963      -14.761471
 C         -18.256210      -53.920673      -13.032589
 C         -16.567270      -52.185257      -14.533609
 C         -17.039711      -53.363743      -12.315124
 C         -16.150063      -52.307777      -13.081693
 H         -18.399252      -50.980560      -14.743721
 H         -18.354160      -52.379059      -15.837128
 H         -18.981565      -54.326569      -12.249068
 H         -17.952105      -54.749023      -13.671695
 H         -16.119497      -51.287216      -14.961401
 H         -16.281073      -52.986633      -15.183050
 H         -16.516474      -54.211884      -11.816257
 H         -17.388206      -52.733749      -11.456263
 H         -16.310637      -51.322834      -12.621720
 H         -15.106649      -52.613140      -13.001217
