20
 generated by VMD
 C         -63.282867     -174.445633      -56.730904
 N         -62.532154     -175.115753      -56.190361
 H         -66.455719     -173.185226      -58.319546
 H         -63.965126     -173.739349      -57.189640
 C         -65.641800     -172.547760      -58.554794
 C         -65.709549     -171.072906      -58.362961
 C         -64.715530     -172.862564      -59.634087
 C         -64.364792     -170.395599      -58.213615
 C         -63.328171     -172.325409      -59.460190
 C         -63.305191     -170.877441      -59.178959
 H         -66.385719     -170.921829      -57.384388
 H         -66.241364     -170.656403      -59.123276
 H         -64.664673     -173.884674      -59.714077
 H         -65.148117     -172.727356      -60.596294
 H         -63.979485     -170.640976      -57.249828
 H         -64.480614     -169.326965      -58.293522
 H         -62.728027     -172.512360      -60.370827
 H         -62.883411     -172.884766      -58.668987
 H         -62.298546     -170.656250      -58.768009
 H         -63.283749     -170.368484      -60.086235
