20
 generated by VMD
 C         -20.356728      -57.261429      -16.799080
 N         -19.363941      -56.687809      -16.859118
 H         -22.510584      -59.947029      -17.674534
 H         -21.136217      -58.000240      -16.521729
 C         -22.417049      -60.395039      -16.753119
 C         -23.717094      -60.817902      -16.026449
 C         -21.174595      -61.155407      -16.665545
 C         -23.311960      -61.100460      -14.571669
 C         -21.089376      -62.149712      -15.543597
 C         -22.039877      -62.004543      -14.383801
 H         -24.371576      -61.512913      -16.527390
 H         -24.352274      -59.918938      -16.070547
 H         -20.997055      -61.647621      -17.634235
 H         -20.349382      -60.447544      -16.537746
 H         -24.110991      -61.695358      -14.106863
 H         -23.205788      -60.079895      -14.064927
 H         -20.070778      -62.357189      -15.132105
 H         -21.240534      -63.117565      -16.007647
 H         -22.452696      -63.011116      -14.144431
 H         -21.462238      -61.679401      -13.488568
