20
 generated by VMD
 C         -38.373116     -108.021324      -36.812954
 N         -38.221603     -108.635925      -37.763481
 H         -41.043766     -108.743942      -35.351185
 H         -38.681152     -107.423096      -36.004730
 C         -41.162338     -109.657845      -34.840500
 C         -40.464157     -110.916916      -35.247643
 C         -42.498638     -109.905624      -34.100048
 C         -40.220226     -111.750114      -33.979622
 C         -42.159554     -110.665527      -32.810669
 C         -41.501579     -111.974625      -33.113068
 H         -39.427242     -110.805550      -35.650097
 H         -40.976902     -111.469154      -36.032383
 H         -42.827217     -108.929123      -33.785095
 H         -43.193966     -110.466324      -34.786179
 H         -39.473614     -111.129494      -33.316772
 H         -39.654621     -112.625153      -34.277863
 H         -42.983429     -110.837296      -32.170643
 H         -41.496220     -110.002693      -32.360855
 H         -41.187679     -112.483849      -32.239639
 H         -42.235977     -112.679192      -33.720592
