20
 generated by VMD
 C         -12.972948      -30.163391       -8.377211
 N         -13.877114      -30.463253       -8.952287
 H         -10.837015      -30.941101       -5.104066
 H         -10.778618      -31.699776       -3.464818
 C         -10.747937      -31.863493       -4.515239
 C          -9.425164      -32.434990       -4.816721
 C         -11.930276      -32.840073       -4.905234
 C          -9.256416      -33.849030       -4.258152
 C         -11.780959      -34.302311       -4.265645
 C         -10.405781      -34.876362       -4.450342
 H          -8.670145      -31.825954       -4.356246
 H          -9.221091      -32.486465       -5.895070
 H         -12.918229      -32.442856       -4.600936
 H         -11.916112      -33.047485       -5.998288
 H          -9.198508      -33.670788       -3.156177
 H          -8.310783      -34.331818       -4.583640
 H         -12.573491      -34.986950       -4.710359
 H         -12.013350      -34.182907       -3.248523
 H         -10.209537      -35.771748       -3.758602
 H         -10.411337      -35.173084       -5.500778
