20
 generated by VMD
 C          -1.761697      -12.986538        0.546645
 N          -1.372730      -13.878539        1.101086
 H          -3.572506      -15.230897        1.822817
 H          -4.302912      -14.820031        0.297175
 C          -4.466806      -15.392699        1.202339
 C          -5.704241      -14.794936        1.813222
 C          -4.547385      -16.878839        0.922288
 C          -6.939494      -15.233284        1.102297
 C          -5.824164      -17.274073        0.132941
 C          -7.044542      -16.735817        0.978555
 H          -5.717331      -13.705750        1.813598
 H          -5.752427      -15.249386        2.868182
 H          -3.665302      -17.179430        0.450898
 H          -4.540333      -17.395428        1.863129
 H          -7.006053      -14.800393        0.116666
 H          -7.775747      -14.919459        1.701854
 H          -5.904138      -18.343515       -0.050330
 H          -5.891936      -16.752846       -0.793553
 H          -7.934274      -16.899380        0.334780
 H          -7.194639      -17.262398        1.922164
