20
 generated by VMD
 C          -1.709156      -14.043332        2.303841
 N          -1.864423      -14.013909        1.202731
 H          -3.735811      -16.995020        1.255969
 H          -4.195515      -17.163565       -0.392859
 C          -4.645539      -16.992325        0.606975
 C          -5.377637      -15.648375        0.539836
 C          -5.530001      -18.200514        0.861232
 C          -6.693809      -15.726013       -0.228552
 C          -6.773729      -18.229141        0.023436
 C          -7.517670      -16.921173        0.291212
 H          -4.772192      -14.837285        0.174715
 H          -5.633964      -15.452020        1.626506
 H          -4.949990      -19.129620        0.790552
 H          -5.842244      -18.342947        1.893051
 H          -6.565629      -15.886846       -1.293723
 H          -7.254816      -14.832729        0.014687
 H          -7.407265      -19.097746        0.232836
 H          -6.562966      -18.206800       -1.045737
 H          -8.455000      -16.954842       -0.320044
 H          -7.775155      -16.874702        1.368490
