20
 generated by VMD
 C         -60.416019     -169.639145      -55.204967
 N         -59.399025     -169.190201      -55.311386
 H         -63.688690     -170.699387      -56.824383
 H         -61.398293     -170.042404      -55.224239
 C         -63.384232     -169.609894      -56.982994
 C         -62.623108     -169.097519      -58.189228
 C         -63.816925     -168.651093      -55.959007
 C         -63.225067     -167.743866      -58.677414
 C         -64.359993     -167.339096      -56.496086
 C         -63.568359     -166.742767      -57.619446
 H         -62.525455     -169.823425      -58.927254
 H         -61.530720     -168.715744      -58.079342
 H         -64.548828     -169.153427      -55.339817
 H         -62.959446     -168.436523      -55.335892
 H         -64.122078     -167.997711      -59.256069
 H         -62.447731     -167.379410      -59.398693
 H         -64.406128     -166.613754      -55.694778
 H         -65.358147     -167.476868      -56.807491
 H         -64.097710     -165.918777      -58.080921
 H         -62.562092     -166.413406      -57.203201
