20
 generated by VMD
 C         -40.975883     -100.840851      -32.860683
 N         -41.796440     -101.332397      -32.199078
 H         -38.493904     -102.838791      -32.292461
 H         -40.096218     -100.545578      -33.485809
 C         -37.444382     -102.843086      -32.013943
 C         -36.300537     -102.697807      -32.879894
 C         -37.191936     -102.904648      -30.505569
 C         -35.161728     -101.760162      -32.259933
 C         -36.319298     -101.704582      -30.150396
 C         -34.978611     -101.854279      -30.852306
 H         -36.800007     -102.211349      -33.743355
 H         -35.925648     -103.709991      -33.151363
 H         -38.097668     -102.865784      -29.846109
 H         -36.633289     -103.806236      -30.236967
 H         -35.521824     -100.778801      -32.632442
 H         -34.204430     -101.977364      -32.816174
 H         -36.298737     -101.869736      -29.081373
 H         -36.813988     -100.758949      -30.370970
 H         -34.198341     -101.056145      -30.524342
 H         -34.520748     -102.769608      -30.461504
