20
 generated by VMD
 C         -10.538307      -35.799507       -9.105578
 N         -10.180308      -34.867493       -8.636318
 H         -13.043888      -36.966290       -6.875364
 H         -14.168668      -37.563190       -5.677480
 C         -13.759044      -37.777779       -6.690322
 C         -12.990069      -39.099125       -6.577954
 C         -14.746399      -37.816479       -7.832627
 C         -13.824046      -40.296619       -6.594924
 C         -15.618085      -39.007812       -7.803422
 C         -14.788404      -40.290436       -7.769556
 H         -12.260551      -39.117157       -5.723598
 H         -12.289473      -39.123360       -7.492710
 H         -15.261449      -36.900330       -7.825526
 H         -14.212275      -37.703613       -8.799718
 H         -14.397689      -40.395924       -5.697722
 H         -13.229709      -41.241131       -6.514040
 H         -16.293694      -38.998909       -8.586967
 H         -16.219564      -38.950535       -6.855180
 H         -15.444273      -41.121758       -7.681331
 H         -14.224637      -40.375710       -8.709937
