20
 generated by VMD
 C         -72.651863     -199.081482      -65.602226
 N         -72.404732     -199.864075      -64.782303
 H         -71.141418     -196.026382      -67.233803
 H         -72.871780     -198.475357      -66.456474
 C         -72.048660     -195.775711      -67.741196
 C         -72.839020     -194.550186      -67.223457
 C         -72.566673     -196.318008      -69.043228
 C         -74.198013     -194.442719      -67.899788
 C         -74.063049     -196.775360      -68.832138
 C         -74.915726     -195.751556      -68.051079
 H         -72.279831     -193.656113      -67.411446
 H         -73.082062     -194.778534      -66.106880
 H         -72.561485     -195.587646      -69.816139
 H         -71.938339     -197.119461      -69.291252
 H         -74.065125     -194.123108      -68.933769
 H         -74.900101     -193.756317      -67.446022
 H         -74.029961     -197.750092      -68.388084
 H         -74.517891     -196.866745      -69.845131
 H         -75.848801     -195.716278      -68.473885
 H         -74.783813     -196.252792      -67.008087
