20
 generated by VMD
 C         -49.827290     -128.610291      -43.034637
 N         -50.620262     -128.875488      -43.802166
 H         -48.747768     -128.281281      -39.794601
 H         -49.054005     -128.442078      -42.294487
 C         -47.884315     -128.255432      -40.426792
 C         -46.755337     -129.101364      -40.021698
 C         -47.392338     -127.036110      -41.030056
 C         -45.676285     -129.280518      -41.056152
 C         -46.408909     -127.280891      -42.185795
 C         -45.132828     -127.893936      -41.634418
 H         -46.984299     -130.109055      -39.787441
 H         -46.406357     -128.559235      -39.119968
 H         -48.212357     -126.548965      -41.438942
 H         -46.821507     -126.337555      -40.193867
 H         -45.993214     -129.872620      -41.976788
 H         -44.876423     -129.982361      -40.779053
 H         -45.982079     -126.372787      -42.656353
 H         -46.853786     -127.834869      -43.039562
 H         -44.377831     -128.014832      -42.420998
 H         -44.680187     -127.397316      -40.746357
