20
 generated by VMD
 C         -59.351959     -168.925934      -55.870384
 N         -59.426727     -168.648941      -54.704556
 H         -63.099674     -169.971527      -56.131130
 H         -59.409298     -169.120132      -56.942932
 C         -62.986660     -168.928162      -56.504559
 C         -62.788513     -168.704056      -57.950634
 C         -63.203613     -167.803101      -55.565384
 C         -63.693398     -167.615356      -58.481445
 C         -64.031761     -166.739227      -56.174755
 C         -63.686752     -166.423798      -57.589611
 H         -62.820034     -169.703934      -58.497364
 H         -61.739876     -168.479126      -57.993137
 H         -63.620533     -168.141541      -54.470943
 H         -62.252796     -167.225418      -55.364914
 H         -64.693726     -167.960449      -58.588703
 H         -63.377220     -167.445892      -59.487221
 H         -64.110443     -165.906677      -55.473225
 H         -65.123558     -167.023895      -56.234875
 H         -64.295280     -165.598419      -57.982067
 H         -62.644249     -165.981216      -57.535091
