20
 generated by VMD
 C         -41.664921     -102.299034      -34.184029
 N         -40.947128     -101.829323      -34.931126
 H         -39.421478     -104.227173      -32.426010
 H         -42.215237     -102.859268      -33.369846
 C         -38.388771     -104.184471      -32.097691
 C         -37.303806     -103.654152      -33.022835
 C         -38.132828     -104.956322      -30.940222
 C         -36.081791     -103.318184      -32.295601
 C         -36.906265     -104.558693      -30.175760
 C         -35.764580     -104.434692      -31.233702
 H         -37.641071     -102.777267      -33.559803
 H         -37.282475     -104.432617      -33.883335
 H         -39.091377     -104.997658      -30.465572
 H         -37.890110     -106.000412      -31.297045
 H         -36.065922     -102.526009      -31.654562
 H         -35.283768     -103.181808      -32.994568
 H         -36.587982     -105.336784      -29.339464
 H         -37.037262     -103.608330      -29.732647
 H         -34.780399     -104.198059      -30.743462
 H         -35.612766     -105.346054      -31.684868
