20
 generated by VMD
 C         -31.536718      -79.255280      -26.418581
 N         -30.902596      -78.281189      -26.510096
 H         -28.651615      -81.149742      -25.327175
 H         -32.197159      -80.025032      -26.303410
 C         -28.758415      -81.617462      -24.409889
 C         -27.733843      -81.447815      -23.320869
 C         -29.856821      -82.550423      -24.111574
 C         -28.236105      -81.225571      -21.951099
 C         -30.465240      -82.364258      -22.680918
 C         -29.398693      -82.324272      -21.528481
 H         -27.094574      -80.548187      -23.572708
 H         -27.073301      -82.337837      -23.213778
 H         -30.680317      -82.278328      -24.876904
 H         -29.604876      -83.546402      -24.325207
 H         -28.515268      -80.139946      -21.963598
 H         -27.538872      -81.264008      -21.179594
 H         -31.168898      -83.160370      -22.380022
 H         -31.066185      -81.417244      -22.705776
 H         -29.673801      -82.262375      -20.428558
 H         -28.907288      -83.395538      -21.562553
