20
 generated by VMD
 C         -63.369827     -174.565155      -56.390690
 N         -62.300690     -174.858047      -56.110077
 H         -66.361542     -173.132401      -58.148994
 H         -64.425613     -174.402557      -56.591969
 C         -65.649986     -172.437225      -58.533314
 C         -65.598015     -170.971451      -58.027607
 C         -64.623062     -172.889999      -59.603687
 C         -64.137077     -170.339706      -58.120541
 C         -63.289742     -172.016541      -59.690498
 C         -63.508507     -170.514893      -59.443882
 H         -66.013550     -170.691879      -57.077988
 H         -66.179848     -170.286819      -58.777145
 H         -64.292900     -174.049637      -59.529980
 H         -65.147659     -172.824173      -60.635502
 H         -63.548161     -170.874817      -57.307491
 H         -64.160980     -169.264572      -57.859715
 H         -62.924957     -172.227936      -60.710636
 H         -62.622334     -172.350204      -58.934498
 H         -62.525822     -169.982422      -59.455353
 H         -64.141594     -170.071472      -60.300331
