20
 generated by VMD
 C         -20.095091      -61.874741      -17.733488
 N         -19.680008      -61.604198      -16.648912
 H         -21.890764      -65.074074      -16.761950
 H         -20.444172      -61.850418      -18.705122
 C         -22.947384      -65.092186      -17.029921
 C         -23.152737      -64.333679      -18.295418
 C         -24.096832      -65.238594      -16.077404
 C         -24.439293      -64.735947      -18.925886
 C         -25.349834      -65.826599      -16.725859
 C         -25.574810      -64.942627      -17.949322
 H         -22.336529      -64.476761      -18.979937
 H         -23.279161      -63.242996      -18.129496
 H         -23.780256      -65.916336      -15.296996
 H         -24.245661      -64.183014      -15.806293
 H         -24.165638      -65.621834      -19.535282
 H         -24.708855      -63.995907      -19.681744
 H         -26.185957      -65.944229      -15.956654
 H         -25.215059      -66.899750      -17.040962
 H         -26.415522      -65.231590      -18.595856
 H         -25.969128      -63.884506      -17.662674
