20
 generated by VMD
 C         -60.019485     -157.401505      -56.419060
 N         -59.416523     -158.414276      -56.503437
 H         -60.186569     -157.455902      -53.277023
 H         -60.607410     -156.510056      -56.379169
 C         -59.564957     -158.255402      -52.880459
 C         -58.147354     -157.935211      -52.313145
 C         -59.880810     -159.702499      -53.151531
 C         -57.763737     -158.960968      -51.150230
 C         -59.487194     -160.744873      -52.030716
 C         -58.071640     -160.450043      -51.607224
 H         -57.879101     -156.883240      -52.046967
 H         -57.399651     -157.980850      -53.097584
 H         -61.028141     -159.806488      -53.225262
 H         -59.449863     -160.028641      -54.093147
 H         -58.355206     -158.932571      -50.275143
 H         -56.645180     -158.887405      -50.893822
 H         -59.642666     -161.662872      -52.593189
 H         -60.167191     -160.713562      -51.160496
 H         -57.690853     -161.087265      -50.862591
 H         -57.502041     -160.592865      -52.532352
