20
 generated by VMD
 C         -24.857983      -70.639069      -16.635353
 N         -25.119648      -70.866074      -15.538680
 H         -23.802094      -68.221222      -18.654739
 H         -24.484486      -70.424858      -17.602570
 C         -24.403629      -68.741341      -19.384453
 C         -23.818455      -69.360313      -20.761190
 C         -25.765005      -68.164101      -19.752665
 C         -24.818672      -70.373177      -21.366276
 C         -26.864635      -69.215462      -20.394819
 C         -26.251102      -69.664833      -21.681108
 H         -22.849411      -69.825676      -20.612144
 H         -23.530537      -68.398010      -21.304932
 H         -26.171940      -67.875473      -18.813276
 H         -25.747683      -67.360161      -20.426603
 H         -24.893501      -71.159569      -20.549841
 H         -24.411177      -70.785271      -22.273872
 H         -27.790913      -68.708656      -20.684729
 H         -27.207605      -70.040573      -19.720337
 H         -26.813269      -70.338257      -22.317589
 H         -26.153063      -68.824310      -22.360531
