20
 generated by VMD
 C         -12.645383      -30.245523       -8.123780
 N         -13.123327      -30.661791       -7.210402
 H         -11.255500      -30.395138       -5.376521
 H         -10.732035      -30.966206       -3.663333
 C         -10.886335      -31.248335       -4.717567
 C          -9.555856      -31.841793       -5.306105
 C         -11.975317      -32.354080       -4.694313
 C          -9.143979      -33.092033       -4.523540
 C         -11.468256      -33.613407       -3.937932
 C         -10.190687      -34.145668       -4.631598
 H          -8.727346      -31.156187       -5.251665
 H          -9.712317      -32.032310       -6.425216
 H         -12.830272      -31.973246       -4.154906
 H         -12.247451      -32.572098       -5.724741
 H          -8.899172      -32.860405       -3.504306
 H          -8.240336      -33.433746       -4.966942
 H         -12.212465      -34.488754       -3.872671
 H         -11.283894      -33.346073       -2.921265
 H          -9.800281      -34.906406       -3.940383
 H         -10.340735      -34.451717       -5.631357
