20
 generated by VMD
 C         -32.195786      -94.729309      -25.435329
 N         -33.331951      -94.891335      -25.189495
 H         -34.005161      -95.068359      -28.494204
 H         -31.239906      -94.395973      -25.685452
 C         -34.231766      -94.059349      -28.775442
 C         -35.676369      -93.583519      -28.654039
 C         -33.385967      -93.549889      -29.874723
 C         -35.844681      -92.060333      -28.943146
 C         -33.634743      -91.992912      -30.052074
 C         -35.161388      -91.649117      -30.161589
 H         -36.073139      -93.870300      -27.662346
 H         -36.201836      -94.214722      -29.435915
 H         -32.341515      -93.736984      -29.686562
 H         -33.659164      -93.955841      -30.858860
 H         -35.588512      -91.356354      -28.119263
 H         -36.889751      -91.934784      -29.097775
 H         -33.204803      -91.809273      -31.046301
 H         -33.163624      -91.470520      -29.181318
 H         -35.303837      -90.578545      -30.417665
 H         -35.562527      -92.161400      -31.192360
