20
 generated by VMD
 C         -67.381798     -192.064377      -67.376686
 N         -67.835526     -192.803604      -66.578239
 H         -69.871376     -189.769608      -65.433617
 H         -66.816895     -191.427994      -68.041000
 C         -70.944702     -190.026810      -65.155907
 C         -71.705154     -190.839737      -66.152885
 C         -71.570587     -189.453369      -63.990089
 C         -72.964294     -191.610321      -65.478477
 C         -73.073082     -189.748352      -63.806435
 C         -73.251427     -191.277176      -64.039711
 H         -71.035545     -191.604767      -66.475845
 H         -72.116341     -190.139526      -66.910286
 H         -71.048592     -189.802658      -63.174427
 H         -71.459351     -188.380615      -64.062561
 H         -72.798698     -192.665695      -65.632256
 H         -73.774452     -191.409698      -66.199356
 H         -73.592377     -189.116043      -64.541161
 H         -73.314163     -189.361328      -62.804367
 H         -72.553513     -191.979187      -63.428150
 H         -74.196175     -191.491058      -63.529335
