20
 generated by VMD
 C         -41.075558     -103.121109      -35.644718
 N         -41.237526     -104.253456      -35.446598
 H         -39.402061     -104.306046      -33.438232
 H         -40.833897     -102.044853      -35.853630
 C         -38.693844     -104.988739      -32.979824
 C         -37.150913     -104.751526      -32.984459
 C         -39.152149     -106.440201      -32.738411
 C         -36.685688     -105.309731      -31.542961
 C         -38.785820     -106.892937      -31.320024
 C         -37.335804     -106.697929      -31.212214
 H         -36.963997     -103.723877      -33.053551
 H         -36.750805     -105.199509      -33.898567
 H         -40.251255     -106.577148      -33.019047
 H         -38.587101     -107.024239      -33.415817
 H         -37.072723     -104.732773      -30.707077
 H         -35.579678     -105.282341      -31.580681
 H         -39.044746     -107.897736      -31.151798
 H         -39.327168     -106.260399      -30.605757
 H         -37.200024     -107.011421      -30.215134
 H         -36.789368     -107.451439      -31.870554
