20
 generated by VMD
 C         -47.909184     -134.569702      -46.817760
 N         -47.986092     -134.242920      -47.894859
 H         -50.267982     -134.448532      -45.038647
 H         -48.116150     -135.098206      -45.896694
 C         -50.577183     -135.294769      -44.390762
 C         -50.916161     -136.554306      -45.157829
 C         -51.089828     -135.162201      -42.957970
 C         -50.987865     -137.841248      -44.226830
 C         -51.181507     -136.408066      -42.123806
 C         -51.833103     -137.620529      -42.990849
 H         -50.262436     -136.722809      -45.980610
 H         -51.968925     -136.304626      -45.623844
 H         -50.373672     -134.497131      -42.451332
 H         -52.105152     -134.729080      -42.790344
 H         -49.951050     -138.207474      -44.122314
 H         -51.420208     -138.635422      -44.808125
 H         -51.866314     -136.277542      -41.278267
 H         -50.173973     -136.684692      -41.740387
 H         -51.577862     -138.564636      -42.409508
 H         -52.774105     -137.367340      -43.392601
