20
 generated by VMD
 C         -47.048210     -124.818626      -38.042313
 N         -47.890491     -125.579834      -38.359367
 H         -44.421185     -122.240829      -37.714970
 H         -46.254028     -124.149574      -37.851261
 C         -44.764839     -122.398811      -38.718658
 C         -43.620358     -122.905090      -39.577183
 C         -45.635052     -121.484833      -39.545326
 C         -44.064140     -123.619194      -40.819092
 C         -46.091419     -122.246758      -40.777405
 C         -44.989990     -122.628769      -41.641193
 H         -42.891586     -123.435791      -39.011257
 H         -43.104431     -122.024765      -39.891045
 H         -46.536243     -121.354317      -38.986374
 H         -45.189865     -120.512413      -39.776947
 H         -44.791851     -124.382744      -40.569237
 H         -43.217693     -123.739395      -41.476578
 H         -46.643387     -121.526245      -41.443733
 H         -46.814320     -123.199608      -40.570087
 H         -45.355824     -123.164177      -42.538628
 H         -44.367638     -121.821068      -41.985394
