20
 generated by VMD
 C         -50.718773     -127.697533      -40.937122
 N         -51.377007     -128.375854      -41.600723
 H         -47.591927     -127.766930      -41.149754
 H         -50.399765     -127.119484      -40.102299
 C         -46.709778     -127.167015      -40.886654
 C         -45.465115     -127.538483      -40.120766
 C         -46.786388     -125.648132      -41.260727
 C         -44.166004     -126.946045      -40.713322
 C         -45.490341     -125.102814      -41.877800
 C         -44.251003     -125.515961      -41.051758
 H         -45.408173     -128.664154      -40.047119
 H         -45.522022     -127.007607      -39.079971
 H         -47.789154     -125.337021      -41.874977
 H         -46.978607     -125.010323      -40.407951
 H         -43.847580     -127.559731      -41.549072
 H         -43.359665     -126.902863      -39.969723
 H         -45.507427     -124.022346      -41.814106
 H         -45.248001     -125.314369      -42.956768
 H         -43.331562     -125.200310      -41.504128
 H         -44.280087     -124.946220      -40.097527
