20
 generated by VMD
 C         -62.937969     -174.884140      -54.562363
 N         -63.023750     -174.337341      -55.600357
 H         -63.681244     -173.160873      -58.046951
 H         -62.917439     -175.470596      -53.638855
 C         -63.892426     -172.145706      -58.550243
 C         -64.237068     -171.162674      -57.517208
 C         -64.473511     -172.224503      -59.907402
 C         -63.858574     -169.763382      -58.144939
 C         -64.155655     -170.879837      -60.648651
 C         -64.400131     -169.553253      -59.636597
 H         -63.768734     -171.238113      -56.526493
 H         -65.267052     -171.142487      -57.306026
 H         -64.110573     -173.012085      -60.563812
 H         -65.625458     -172.292740      -59.962048
 H         -62.841877     -169.562912      -58.052551
 H         -64.230453     -168.995804      -57.453297
 H         -64.758430     -170.792999      -61.557003
 H         -63.082424     -170.957611      -60.862831
 H         -64.150566     -168.681564      -60.141434
 H         -65.500359     -169.479691      -59.534546
