20
 generated by VMD
 C         -38.400318      -98.988777      -27.209925
 N         -37.622391      -98.799957      -26.350239
 H         -37.060013      -96.810791      -29.900188
 H         -38.980904      -99.231590      -28.019548
 C         -36.036873      -96.671806      -30.170462
 C         -35.390804      -97.408829      -31.352560
 C         -34.976139      -96.003319      -29.325268
 C         -34.574444      -96.456589      -32.203358
 C         -34.149387      -95.038292      -30.176830
 C         -33.532536      -95.913254      -31.253487
 H         -36.115627      -97.932762      -31.953165
 H         -34.819267      -98.300827      -30.933479
 H         -35.449600      -95.523193      -28.486338
 H         -34.191338      -96.661575      -28.925034
 H         -35.218739      -95.682465      -32.571987
 H         -34.188400      -97.089882      -33.019760
 H         -33.264313      -94.527084      -29.719011
 H         -34.773666      -94.203171      -30.603849
 H         -32.922512      -95.331909      -31.962292
 H         -32.973095      -96.691666      -30.715252
