20
 generated by VMD
 C         -59.470615     -158.336349      -57.427631
 N         -58.416298     -158.427261      -57.973949
 H         -59.794369     -158.796341      -54.109253
 H         -60.482117     -158.291565      -56.992275
 C         -59.826843     -159.484177      -53.291023
 C         -58.599392     -159.339844      -52.362087
 C         -60.693611     -160.695114      -53.256763
 C         -58.530437     -160.481888      -51.319504
 C         -60.659752     -161.581100      -52.075157
 C         -59.219456     -161.802887      -51.643757
 H         -58.645298     -158.489563      -51.714436
 H         -57.677540     -159.392975      -52.964169
 H         -61.787899     -160.496857      -53.520191
 H         -60.273537     -161.088242      -54.144859
 H         -58.774036     -160.055649      -50.401974
 H         -57.405933     -160.606094      -50.994064
 H         -61.160496     -162.547211      -52.279629
 H         -61.210148     -161.009857      -51.239262
 H         -59.231014     -162.376144      -50.729027
 H         -58.641491     -162.584457      -52.213551
