20
 generated by VMD
 C         -50.728527     -129.596939      -45.437920
 N         -51.442780     -130.509033      -45.767250
 H         -48.599220     -130.570557      -43.858593
 H         -50.070015     -128.735947      -45.316315
 C         -48.127502     -130.724075      -42.843887
 C         -48.316971     -132.158493      -42.162743
 C         -47.854668     -129.534470      -41.972538
 C         -47.108402     -132.376099      -41.197647
 C         -46.641212     -129.860291      -41.090420
 C         -46.796940     -131.157196      -40.327618
 H         -48.424870     -132.918137      -43.005249
 H         -49.179104     -132.311646      -41.540852
 H         -47.581985     -128.677902      -42.559654
 H         -48.690708     -129.454041      -41.321682
 H         -46.252258     -132.739349      -41.855438
 H         -47.195526     -133.250381      -40.499645
 H         -46.529091     -129.066650      -40.328480
 H         -45.733776     -129.971832      -41.607265
 H         -45.900330     -131.403473      -39.783276
 H         -47.635460     -130.966797      -39.578495
