20
 generated by VMD
 C          -1.896477       -8.669825       -0.504392
 N          -2.116247       -7.961372        0.318779
 H          -3.351677       -9.445193        2.572221
 H          -1.876201      -10.315606        2.895598
 C          -2.973421      -10.377659        2.997234
 C          -3.647803      -11.465202        2.140468
 C          -3.276706      -10.518910        4.489043
 C          -3.480733      -12.884599        2.672462
 C          -3.031979      -11.980724        4.956413
 C          -3.796109      -13.008644        4.098996
 H          -3.211477      -11.328701        1.146460
 H          -4.716939      -11.221425        1.947307
 H          -2.592262       -9.771935        5.072935
 H          -4.367351      -10.291655        4.612082
 H          -2.413544      -13.041746        2.479697
 H          -3.997655      -13.525317        1.982031
 H          -3.333832      -12.089181        6.027538
 H          -1.941130      -12.122666        4.814806
 H          -3.478531      -14.008171        4.369816
 H          -4.833748      -12.860193        4.335361
