20
 generated by VMD
 C         -60.711834     -153.586014      -51.567097
 N         -61.436260     -154.423386      -52.023323
 H         -57.547493     -153.931335      -52.258682
 H         -59.944111     -152.879074      -51.331741
 C         -56.792751     -153.457794      -51.632729
 C         -56.631313     -153.815460      -50.148693
 C         -55.889446     -152.391342      -52.200596
 C         -55.243832     -154.072021      -49.609570
 C         -54.478348     -152.489197      -51.634964
 C         -54.404503     -152.850418      -50.155243
 H         -57.203949     -154.730392      -49.987545
 H         -57.093456     -152.928925      -49.705044
 H         -55.737808     -152.622101      -53.298389
 H         -56.306973     -151.363815      -52.069668
 H         -54.914608     -155.039948      -50.147373
 H         -55.414139     -154.151596      -48.531937
 H         -53.898174     -151.525543      -51.877052
 H         -53.790100     -153.223770      -51.943714
 H         -53.366283     -153.039124      -50.082836
 H         -54.724766     -151.917557      -49.484947
