20
 generated by VMD
 C         -40.856964     -103.898270      -37.122952
 N         -40.754238     -104.796822      -36.382637
 H         -39.968353     -105.804077      -33.923538
 H         -40.756779     -103.158989      -37.951462
 C         -39.308685     -106.539810      -33.322308
 C         -37.937737     -106.151237      -32.872574
 C         -39.705700     -107.965355      -33.357002
 C         -37.719967     -106.830994      -31.393682
 C         -39.623024     -108.575470      -32.008793
 C         -38.203819     -108.292694      -31.402338
 H         -37.652332     -105.068680      -32.806805
 H         -37.284805     -106.551979      -33.647736
 H         -40.765350     -108.172363      -33.751030
 H         -39.092339     -108.373718      -34.160622
 H         -38.292400     -106.200089      -30.705906
 H         -36.642956     -106.732986      -31.177176
 H         -39.772644     -109.692513      -32.197891
 H         -40.495914     -108.401039      -31.410610
 H         -37.939873     -108.691452      -30.473265
 H         -37.507946     -108.804741      -32.110058
