20
 generated by VMD
 C         -13.752296      -28.733829       -6.934416
 N         -13.229759      -28.871178       -7.907077
 H         -11.949347      -30.688761       -4.939798
 H         -10.580068      -29.793230       -4.462579
 C         -10.942855      -30.853119       -4.618108
 C         -10.035568      -31.511913       -5.593473
 C         -10.929030      -31.505939       -3.163118
 C          -8.649169      -31.869236       -5.007582
 C          -9.515977      -32.102215       -2.642181
 C          -8.745976      -32.716885       -3.773859
 H          -9.764636      -30.848909       -6.419312
 H         -10.539857      -32.365276       -6.000727
 H         -11.318931      -30.861202       -2.410378
 H         -11.635558      -32.332603       -3.181687
 H          -8.174959      -30.900246       -4.859203
 H          -8.058537      -32.363945       -5.783604
 H          -9.779418      -32.819622       -1.806858
 H          -8.913044      -31.329027       -2.204843
 H          -7.721586      -32.951736       -3.398254
 H          -9.196362      -33.744362       -3.966139
