20
 generated by VMD
 C         -49.842228     -142.134659      -45.177334
 N         -49.096973     -142.969070      -45.320988
 H         -51.763386     -139.125702      -45.829102
 H         -50.423225     -141.258331      -44.932884
 C         -52.318325     -139.910934      -46.419830
 C         -52.423424     -140.158051      -47.893120
 C         -53.630260     -140.442810      -45.574165
 C         -52.888474     -141.569427      -48.283817
 C         -54.170826     -141.738052      -46.115074
 C         -54.254112     -141.878403      -47.656414
 H         -51.515713     -139.803009      -48.419827
 H         -53.235603     -139.575684      -48.387787
 H         -53.221756     -140.653244      -44.621986
 H         -54.260643     -139.596558      -45.754868
 H         -52.123497     -142.340118      -47.887989
 H         -52.850414     -141.705887      -49.450336
 H         -55.208965     -141.914139      -45.818546
 H         -53.578011     -142.505219      -45.619705
 H         -54.553082     -142.925461      -47.944664
 H         -55.078808     -141.181900      -48.058289
