20
 generated by VMD
 C         -12.983953      -29.932808       -7.497480
 N         -13.654141      -29.349918       -8.167274
 H         -11.456306      -30.296633       -4.819009
 H         -10.171330      -30.365669       -3.715327
 C         -10.726670      -30.954790       -4.395210
 C          -9.748285      -31.461157       -5.497565
 C         -11.442924      -32.125732       -3.732369
 C          -8.807795      -32.460991       -4.830964
 C         -10.553510      -33.154613       -3.116591
 C          -9.590382      -33.661785       -4.277634
 H          -9.197342      -30.583347       -5.968260
 H         -10.258762      -31.961426       -6.307238
 H         -11.988415      -31.635391       -2.926075
 H         -12.191221      -32.578732       -4.356005
 H          -8.176158      -31.996964       -4.095921
 H          -8.071566      -32.875881       -5.520493
 H         -11.169623      -33.901405       -2.655302
 H          -9.847767      -32.776421       -2.293106
 H          -8.937033      -34.407402       -3.903002
 H         -10.076809      -34.210617       -5.081305
