20
 generated by VMD
 C         -68.460014     -185.605789      -66.151184
 N         -69.077522     -186.026001      -67.023529
 H         -69.512665     -183.235809      -63.801361
 H         -67.962639     -185.146698      -65.255852
 C         -69.228012     -183.817184      -62.974407
 C         -70.322197     -184.698196      -62.465424
 C         -67.948334     -183.737701      -62.205788
 C         -69.958626     -185.873016      -61.656342
 C         -67.731224     -184.795700      -61.069836
 C         -68.405693     -186.100098      -61.498791
 H         -70.929672     -185.051239      -63.250515
 H         -71.000374     -184.146744      -61.814274
 H         -67.232452     -183.780060      -62.985306
 H         -67.921005     -182.711853      -61.788754
 H         -70.348389     -186.862595      -61.799786
 H         -70.425385     -185.603546      -60.671864
 H         -68.365608     -184.368134      -60.207901
 H         -66.692047     -185.054367      -60.784035
 H         -68.000107     -186.593735      -62.273781
 H         -68.227127     -186.853531      -60.698715
