20
 generated by VMD
 C         -23.202784      -53.669331      -14.538130
 N         -24.219633      -53.312824      -15.073293
 H         -20.542681      -55.463184      -15.172176
 H         -22.119612      -53.828743      -14.236090
 C         -19.641775      -55.392677      -14.516026
 C         -19.291536      -54.284664      -13.631515
 C         -18.631813      -56.390656      -14.915390
 C         -18.178331      -54.638550      -12.631118
 C         -17.905205      -57.014248      -13.738468
 C         -17.265587      -55.838421      -12.937969
 H         -20.153471      -53.971809      -12.984449
 H         -18.826632      -53.526653      -14.283317
 H         -18.996653      -57.129623      -15.599037
 H         -17.870903      -55.878410      -15.494954
 H         -18.585323      -54.837330      -11.615125
 H         -17.595528      -53.716423      -12.596755
 H         -17.253311      -57.763905      -14.134361
 H         -18.658861      -57.528805      -13.075094
 H         -16.851166      -56.254604      -11.995071
 H         -16.432379      -55.419819      -13.490215
