20
 generated by VMD
 C         -22.588095      -52.313087      -11.636045
 N         -22.295195      -52.675098      -10.640480
 H         -19.852835      -52.507572      -14.326497
 H         -22.478672      -51.737385      -12.696559
 C         -18.930613      -52.309242      -13.908907
 C         -17.945957      -51.723423      -14.823082
 C         -18.451115      -52.853195      -12.617015
 C         -16.450703      -52.224010      -14.584513
 C         -17.179626      -52.209023      -12.082613
 C         -16.073772      -52.118900      -13.102833
 H         -17.951902      -50.583324      -14.921093
 H         -18.301968      -52.086815      -15.777959
 H         -19.249100      -52.826061      -11.884832
 H         -18.193018      -53.952515      -12.761715
 H         -15.846567      -51.627689      -15.247528
 H         -16.425987      -53.255760      -14.907398
 H         -16.715351      -52.799927      -11.202832
 H         -17.438019      -51.261871      -11.683817
 H         -15.500996      -51.206093      -12.862692
 H         -15.455524      -53.009563      -12.961116
