20
 generated by VMD
 C         -62.173782     -172.360367      -54.941444
 N         -61.204693     -172.936676      -55.268433
 H         -61.854343     -170.912933      -58.464798
 H         -63.034142     -171.762848      -54.588451
 C         -62.614555     -170.279205      -58.037361
 C         -62.390266     -168.716003      -57.956814
 C         -64.028984     -170.902374      -58.086548
 C         -63.543854     -167.897736      -58.494530
 C         -65.071884     -169.974091      -58.614117
 C         -64.852745     -168.607986      -58.134243
 H         -61.581005     -168.563812      -58.541191
 H         -62.121639     -168.337509      -56.856304
 H         -63.943916     -171.729263      -58.744736
 H         -64.270851     -171.268982      -57.133320
 H         -63.512127     -167.952835      -59.619514
 H         -63.682922     -166.869461      -58.148750
 H         -66.020401     -170.433884      -58.226559
 H         -65.036957     -170.056442      -59.802025
 H         -65.512680     -167.948593      -58.593662
 H         -65.151474     -168.549011      -57.068176
