20
 generated by VMD
 C         -68.840424     -188.913071      -67.125740
 N         -67.848145     -189.391068      -66.727821
 H         -68.678284     -187.513138      -63.958504
 H         -69.698715     -188.361099      -67.392494
 C         -69.382919     -187.984436      -63.325176
 C         -69.782501     -189.485275      -63.480907
 C         -70.577568     -187.185913      -62.779915
 C         -71.074203     -189.659073      -64.289909
 C         -71.717957     -187.270584      -63.774128
 C         -72.193077     -188.705536      -63.835781
 H         -70.007835     -189.841003      -62.390743
 H         -69.004875     -190.244690      -63.965794
 H         -70.862862     -187.564819      -61.792122
 H         -70.315887     -186.091888      -62.430111
 H         -71.452606     -190.707275      -64.116005
 H         -70.866653     -189.481354      -65.320244
 H         -71.327835     -186.759995      -64.645676
 H         -72.619492     -186.596710      -63.592480
 H         -72.751755     -189.111603      -62.910374
 H         -72.959488     -188.586899      -64.661865
