20
 generated by VMD
 C         -11.608391      -39.156342       -6.363540
 N         -11.610044      -38.929993       -7.438378
 H         -12.703294      -41.288044       -9.026095
 H         -13.955142      -40.039146       -8.466938
 C         -13.811165      -41.068413       -8.990564
 C         -14.509895      -42.040813       -8.007528
 C         -14.442235      -41.096386      -10.363263
 C         -15.992585      -41.769802       -7.901592
 C         -15.899388      -40.744961      -10.226643
 C         -16.665859      -41.698399       -9.284307
 H         -14.069062      -41.905186       -7.030329
 H         -14.227063      -43.079494       -8.303391
 H         -13.958994      -40.373013      -10.984338
 H         -14.243785      -42.070961      -10.870802
 H         -16.105377      -40.810345       -7.371673
 H         -16.493996      -42.510830       -7.303839
 H         -16.366844      -40.817028      -11.267898
 H         -16.060778      -39.772163       -9.830946
 H         -17.697685      -41.386688       -9.268719
 H         -16.700565      -42.743053       -9.667614
