20
 generated by VMD
 C         -68.204666     -194.330185      -66.271904
 N         -67.754189     -194.345078      -65.195656
 H         -70.955627     -191.702515      -67.355743
 H         -68.848572     -194.370865      -67.076500
 C         -71.480743     -191.364899      -66.426071
 C         -72.398827     -190.199112      -66.447647
 C         -71.560303     -192.286148      -65.344452
 C         -73.964462     -190.709015      -66.323425
 C         -72.864609     -192.232208      -64.610207
 C         -74.038696     -191.977097      -65.544899
 H         -72.275223     -189.604401      -67.311714
 H         -72.194359     -189.484848      -65.562729
 H         -71.480576     -193.312241      -65.868469
 H         -70.723396     -192.092392      -64.575027
 H         -74.279434     -190.890793      -67.350952
 H         -74.412491     -189.861206      -65.789131
 H         -72.699699     -191.427811      -63.818848
 H         -73.106789     -193.153015      -64.083092
 H         -74.181862     -192.813049      -66.128815
 H         -74.957779     -191.849121      -64.834366
