20
 generated by VMD
 C         -52.695881     -146.833832      -45.348801
 N         -52.703945     -147.350327      -44.342030
 H         -54.997478     -146.854523      -48.304893
 H         -52.762917     -146.488770      -46.379684
 C         -54.506413     -145.921021      -48.377724
 C         -53.273083     -145.879517      -49.180538
 C         -55.185474     -144.755493      -47.935814
 C         -53.375759     -144.812637      -50.324402
 C         -55.259609     -143.811157      -49.095516
 C         -53.885727     -143.515854      -49.739655
 H         -53.190857     -146.876816      -49.624619
 H         -52.286705     -145.686325      -48.629520
 H         -56.245995     -144.898529      -47.754345
 H         -54.854298     -144.373459      -46.850395
 H         -54.005661     -145.215515      -51.208012
 H         -52.334206     -144.562302      -50.658154
 H         -55.633911     -142.898499      -48.741081
 H         -55.945606     -144.121033      -50.007156
 H         -53.949028     -142.683151      -50.472485
 H         -53.217991     -143.106674      -48.899517
