20
 generated by VMD
 C         -38.674320     -113.497849      -36.118454
 N         -37.519367     -113.597130      -36.059044
 H         -41.323608     -114.424507      -35.086952
 H         -39.685219     -113.090965      -36.410271
 C         -42.232399     -114.540459      -35.722519
 C         -42.212276     -114.606964      -37.257629
 C         -43.476013     -114.149681      -35.093430
 C         -43.472393     -115.073051      -37.910542
 C         -44.666546     -114.973320      -35.652023
 C         -44.784897     -114.653603      -37.193260
 H         -41.434921     -115.374283      -37.493568
 H         -41.791580     -113.578979      -37.639748
 H         -43.335735     -114.302673      -34.037613
 H         -43.721886     -113.082443      -35.284164
 H         -43.444706     -116.156570      -37.828735
 H         -43.497101     -114.842911      -39.025547
 H         -45.709846     -114.796806      -35.256966
 H         -44.343445     -115.987839      -35.337410
 H         -45.675232     -115.044144      -37.595699
 H         -44.934830     -113.520798      -37.413448
