20
 generated by VMD
 C         -40.133137     -104.789635      -36.357746
 N         -39.449760     -104.213547      -37.117805
 H         -40.218559     -108.354813      -35.263443
 H         -40.910316     -105.231445      -35.769268
 C         -39.837605     -108.460533      -34.248722
 C         -38.788548     -107.528069      -33.764793
 C         -40.173550     -109.734795      -33.479916
 C         -38.937870     -107.299454      -32.271919
 C         -40.219765     -109.439972      -32.041218
 C         -39.053047     -108.584045      -31.370316
 H         -39.004379     -106.578575      -34.203987
 H         -37.867813     -107.895409      -33.991886
 H         -41.198727     -110.111801      -33.759068
 H         -39.475628     -110.513947      -33.777222
 H         -39.776657     -106.625183      -32.088425
 H         -38.029755     -106.666878      -32.073936
 H         -40.194759     -110.456131      -31.673042
 H         -41.208355     -109.224777      -31.666119
 H         -39.324951     -108.303062      -30.203678
 H         -38.123581     -109.116196      -31.278337
