20
 generated by VMD
 C         -79.381973     -205.875626      -73.334335
 N         -79.264404     -206.807846      -74.066772
 H         -78.178650     -205.376633      -69.662071
 H         -79.408325     -205.133087      -72.526802
 C         -77.544441     -205.979462      -70.279701
 C         -76.621208     -205.301361      -71.320297
 C         -77.086845     -207.320679      -69.763969
 C         -75.286980     -205.206696      -70.690872
 C         -75.685196     -207.204803      -69.274277
 C         -74.654495     -206.525269      -70.189774
 H         -76.905281     -204.317795      -71.677124
 H         -76.652565     -206.008408      -72.078362
 H         -77.869255     -207.768768      -69.166794
 H         -77.049034     -207.945923      -70.684181
 H         -75.333542     -204.521255      -69.833221
 H         -74.605247     -204.708939      -71.394753
 H         -75.325546     -208.234146      -69.129013
 H         -75.515083     -206.742081      -68.334824
 H         -73.698250     -206.259262      -69.649460
 H         -74.278069     -207.138687      -71.020409
