20
 generated by VMD
 C         -50.587597     -129.391205      -43.163677
 N         -50.355312     -128.290024      -42.841396
 H         -48.486328     -128.228546      -40.518284
 H         -51.022125     -130.380188      -43.285908
 C         -47.533821     -127.780365      -40.407135
 C         -46.412888     -128.606216      -39.938168
 C         -47.126263     -126.454208      -40.923115
 C         -45.355225     -128.799896      -41.037247
 C         -46.165119     -126.602295      -42.080574
 C         -44.920525     -127.335182      -41.551605
 H         -46.707993     -129.642609      -39.716976
 H         -46.048759     -128.166077      -39.015411
 H         -48.089134     -126.009262      -41.387417
 H         -46.658825     -125.878311      -40.119308
 H         -45.765484     -129.324341      -41.893402
 H         -44.524673     -129.396149      -40.673157
 H         -45.897552     -125.628891      -42.615192
 H         -46.740669     -127.200661      -42.931843
 H         -44.278145     -127.390724      -42.432091
 H         -44.396271     -126.814804      -40.772564
