20
 generated by VMD
 C         -38.392853     -112.985641      -36.428040
 N         -37.260330     -112.876457      -36.314362
 H         -41.393951     -114.856339      -34.766075
 H         -39.446476     -113.077393      -36.615429
 C         -42.266251     -114.814789      -35.428791
 C         -42.064323     -114.608841      -36.890175
 C         -43.499115     -114.245842      -34.806553
 C         -43.381641     -114.974716      -37.653564
 C         -44.789284     -114.363106      -35.593830
 C         -44.611797     -114.216560      -37.186821
 H         -41.254761     -115.307632      -37.181877
 H         -41.642323     -113.583084      -37.260761
 H         -43.757751     -114.653923      -33.788971
 H         -43.290688     -113.172935      -34.493942
 H         -43.568855     -116.030418      -37.406185
 H         -43.218628     -114.926048      -38.704269
 H         -45.426640     -113.651733      -35.108639
 H         -45.365311     -115.247078      -35.449001
 H         -45.520107     -114.764099      -37.792179
 H         -44.487896     -113.165337      -37.500526
