20
 generated by VMD
 C         -21.071083      -52.297585       -9.649887
 N         -21.331888      -52.437168      -10.721997
 H         -19.100409      -50.279819      -11.567510
 H         -20.538433      -51.754131       -8.613937
 C         -18.350218      -50.091476      -12.294294
 C         -17.797403      -51.433071      -12.743353
 C         -17.457447      -48.880119      -12.256311
 C         -16.858082      -51.403912      -13.932844
 C         -16.465603      -48.974113      -13.407662
 C         -15.805241      -50.355030      -13.672238
 H         -18.583437      -52.192074      -12.782695
 H         -17.170710      -51.811367      -11.908911
 H         -17.969566      -47.923321      -12.340345
 H         -16.788557      -48.939194      -11.354553
 H         -17.495041      -51.101357      -14.804706
 H         -16.409464      -52.376320      -14.145139
 H         -15.702830      -48.323990      -13.070333
 H         -16.870449      -48.542297      -14.369742
 H         -15.028168      -50.430485      -14.418746
 H         -15.340675      -50.617821      -12.705743
