20
 generated by VMD
 C         -40.753510     -102.732933      -34.940350
 N         -41.494747     -102.452301      -35.778591
 H         -39.743137     -104.718071      -32.743763
 H         -40.262562     -102.941452      -33.973648
 C         -38.808731     -104.788162      -32.355244
 C         -37.711468     -104.072571      -32.888409
 C         -38.680595     -105.911339      -31.424726
 C         -36.502247     -103.987267      -31.935661
 C         -37.338097     -105.833412      -30.539648
 C         -36.077515     -105.327972      -31.276714
 H         -38.027565     -103.026436      -32.966797
 H         -37.414444     -104.503082      -33.891865
 H         -39.441853     -105.919930      -30.661388
 H         -38.719440     -106.831894      -31.994886
 H         -36.736687     -103.207283      -31.232538
 H         -35.704788     -103.749489      -32.594627
 H         -37.322105     -106.713120      -30.009354
 H         -37.548603     -105.038513      -29.787668
 H         -35.219627     -105.268250      -30.668861
 H         -35.862701     -106.049324      -32.126778
