20
 generated by VMD
 C         -66.988785     -189.694397      -66.743645
 N         -66.584625     -189.102142      -67.628754
 H         -69.355858     -189.682709      -64.737907
 H         -67.400726     -190.079880      -65.836143
 C         -70.210999     -189.505646      -64.132286
 C         -71.323784     -190.465622      -63.868015
 C         -70.378769     -188.011017      -63.692505
 C         -72.670326     -189.807739      -64.134689
 C         -71.862411     -187.551163      -63.557022
 C         -72.907349     -188.612091      -63.229671
 H         -71.285904     -190.682037      -62.811157
 H         -71.336090     -191.262909      -64.584038
 H         -69.963188     -187.849701      -62.740063
 H         -69.805962     -187.229919      -64.237503
 H         -73.416977     -190.541840      -63.900982
 H         -72.802299     -189.588547      -65.224510
 H         -72.369690     -186.991776      -64.393776
 H         -71.849709     -186.754700      -62.795517
 H         -72.686432     -188.844864      -62.191708
 H         -73.907425     -188.305099      -63.420452
