20
 generated by VMD
 C         -15.202510      -46.673382       -6.142447
 N         -15.051405      -47.273453       -5.203132
 H         -15.806280      -45.867088       -9.486428
 H         -14.854774      -45.987259      -10.950184
 C         -15.885420      -45.795990      -10.625568
 C         -16.415442      -44.436588      -11.123875
 C         -16.730434      -46.792068      -11.348685
 C         -16.522070      -44.044601      -12.605687
 C         -16.721991      -46.507435      -12.932862
 C         -17.274117      -45.110657      -13.299168
 H         -15.840164      -43.593925      -10.690672
 H         -17.432125      -44.337532      -10.739711
 H         -16.358959      -47.821468      -11.156597
 H         -17.776682      -46.813526      -11.016116
 H         -15.492005      -43.856049      -12.948864
 H         -17.050293      -43.105045      -12.769091
 H         -17.425982      -47.319637      -13.356684
 H         -15.683045      -46.669609      -13.289996
 H         -17.237015      -44.978275      -14.421456
 H         -18.302073      -45.027042      -12.950481
