20
 generated by VMD
 C         -20.630051      -56.487671      -16.822323
 N         -21.363157      -55.808659      -17.428801
 H         -22.606915      -58.490360      -16.522789
 H         -19.854723      -57.254349      -16.271763
 C         -22.069376      -59.217751      -15.879917
 C         -22.235256      -59.183472      -14.393075
 C         -21.658880      -60.535332      -16.537094
 C         -21.032818      -59.725266      -13.713945
 C         -20.705826      -61.378830      -15.651633
 C         -20.838665      -61.187347      -14.165364
 H         -23.076008      -59.805691      -14.033463
 H         -22.544798      -58.157070      -14.122958
 H         -22.614775      -61.074055      -16.689070
 H         -21.307072      -60.452240      -17.573389
 H         -21.284670      -59.876144      -12.648865
 H         -20.199530      -59.092247      -13.985346
 H         -19.758242      -60.993530      -15.969056
 H         -20.766527      -62.458736      -15.883291
 H         -21.690809      -61.823521      -13.785283
 H         -19.986103      -61.522285      -13.600817
