20
 generated by VMD
 C         -22.121300      -52.964668      -12.529124
 N         -23.024248      -52.500706      -12.956535
 H         -20.177921      -54.066025      -14.502063
 H         -21.138931      -53.691322      -12.467807
 C         -19.434294      -53.810059      -13.702496
 C         -18.885204      -52.397831      -13.675850
 C         -18.483833      -54.884941      -13.433350
 C         -17.471367      -52.375706      -14.195296
 C         -17.199320      -54.494831      -12.712747
 C         -16.469538      -53.283390      -13.400702
 H         -18.938322      -51.968590      -12.682580
 H         -19.595085      -51.688438      -14.235919
 H         -18.996155      -55.652542      -12.771595
 H         -18.167856      -55.340733      -14.349753
 H         -17.065466      -51.350296      -14.253920
 H         -17.519863      -52.778259      -15.239582
 H         -16.502029      -55.413284      -12.652552
 H         -17.453449      -54.210728      -11.699631
 H         -16.038834      -52.663605      -12.627428
 H         -15.640166      -53.622906      -13.958328
