20
 generated by VMD
 C         -55.885567     -149.157715      -45.819965
 N         -55.550011     -149.949585      -45.029251
 H         -54.540195     -148.278000      -48.516731
 H         -56.111214     -148.355438      -46.487946
 C         -54.178120     -147.266495      -48.850807
 C         -53.144585     -147.362167      -49.811790
 C         -54.791298     -146.031662      -48.510761
 C         -53.572159     -146.666107      -51.074505
 C         -55.220886     -145.446625      -49.828140
 C         -54.081688     -145.274551      -50.817970
 H         -53.010014     -148.519363      -50.030144
 H         -52.133526     -147.211899      -49.394093
 H         -55.687222     -146.148270      -47.885960
 H         -54.090652     -145.382309      -48.064171
 H         -54.309341     -147.256531      -51.566944
 H         -52.663982     -146.765488      -51.675369
 H         -55.513756     -144.393646      -49.623428
 H         -56.040752     -146.069031      -50.279949
 H         -54.327415     -144.727798      -51.695133
 H         -53.199574     -144.723724      -50.385773
