20
 generated by VMD
 C          -1.630110       -9.374362       -0.076264
 N          -2.563224       -9.002600        0.335512
 H          -2.338717      -10.693913        2.447141
 H          -2.124197      -11.756497        3.811656
 C          -2.825653      -11.540178        2.958983
 C          -2.701811      -12.783323        2.112332
 C          -4.230712      -11.301018        3.332456
 C          -3.316465      -14.052052        2.701686
 C          -4.917419      -12.576633        3.999072
 C          -4.769016      -13.721622        3.036503
 H          -1.656048      -13.024063        1.818521
 H          -3.163077      -12.626182        1.156707
 H          -4.348725      -10.503634        4.104085
 H          -4.870042      -11.005868        2.515094
 H          -2.810188      -14.500331        3.559588
 H          -3.332068      -14.874668        1.964047
 H          -5.957140      -12.368343        4.249963
 H          -4.445408      -12.809082        4.918346
 H          -5.363301      -14.554501        3.483260
 H          -5.344962      -13.522075        2.107574
