20
 generated by VMD
 C         -31.679752      -78.992058      -26.459787
 N         -30.974955      -78.118423      -26.763433
 H         -28.917189      -80.724617      -25.190369
 H         -32.393307      -79.785225      -26.286911
 C         -28.910259      -81.167656      -24.183409
 C         -27.647907      -81.210846      -23.328220
 C         -29.853653      -82.281929      -23.961367
 C         -27.976524      -81.246330      -21.856003
 C         -30.233974      -82.306183      -22.451132
 C         -29.065887      -82.251366      -21.416204
 H         -27.039530      -80.285973      -23.471611
 H         -27.109316      -82.141174      -23.527225
 H         -30.827127      -82.121765      -24.602015
 H         -29.485897      -83.277321      -24.139153
 H         -28.280590      -80.214180      -21.488861
 H         -27.075804      -81.386856      -21.316938
 H         -30.937895      -83.138161      -22.327259
 H         -30.850199      -81.373680      -22.047319
 H         -29.402376      -81.961685      -20.392214
 H         -28.677687      -83.283806      -21.122602
