20
 generated by VMD
 C         -49.533680     -132.018616      -46.348194
 N         -50.273243     -132.251999      -47.271122
 H         -47.859745     -133.916077      -44.693924
 H         -48.803783     -131.662811      -45.634254
 C         -48.431316     -134.182358      -43.817101
 C         -49.026707     -135.535767      -43.885487
 C         -49.115826     -133.140640      -42.934708
 C         -49.818821     -136.073608      -42.645157
 C         -49.780380     -133.704666      -41.712265
 C         -50.578140     -134.932922      -41.964066
 H         -48.269047     -136.274399      -44.239750
 H         -49.665924     -135.450531      -44.699005
 H         -48.379753     -132.309738      -42.521839
 H         -49.887012     -132.618744      -43.505833
 H         -49.066383     -136.452728      -41.885056
 H         -50.537605     -136.923996      -42.890072
 H         -50.501293     -132.995270      -41.332664
 H         -49.086475     -133.794846      -40.841473
 H         -51.017792     -135.289688      -40.938534
 H         -51.413761     -134.678940      -42.530800
