20
 generated by VMD
 C         -40.828346     -103.980583      -36.930836
 N         -41.068550     -104.912849      -36.263142
 H         -39.270882     -105.655449      -34.180511
 H         -40.743198     -103.131699      -37.591515
 C         -39.034904     -106.285812      -33.327808
 C         -37.678226     -105.954842      -32.641811
 C         -39.683075     -107.569839      -33.368752
 C         -37.634083     -106.770042      -31.345676
 C         -39.596024     -108.272255      -32.079548
 C         -38.127911     -108.196861      -31.532372
 H         -37.631859     -104.834312      -32.431236
 H         -36.768127     -106.156418      -33.157799
 H         -40.755966     -107.350784      -33.622818
 H         -39.453194     -108.340477      -34.066132
 H         -38.262035     -106.204582      -30.735819
 H         -36.633793     -106.672127      -30.962776
 H         -39.861980     -109.337982      -32.112816
 H         -40.343819     -107.956810      -31.344992
 H         -37.986507     -108.886368      -30.671314
 H         -37.449089     -108.596092      -32.258568
