20
 generated by VMD
 C         -43.263969     -121.034233      -35.547035
 N         -42.918186     -120.685486      -34.510780
 H         -44.199627     -121.727280      -38.592628
 H         -43.627495     -121.461571      -36.419048
 C         -44.186703     -120.665199      -38.737564
 C         -43.176273     -119.974693      -39.671703
 C         -45.416981     -119.829391      -38.366058
 C         -43.771652     -118.972076      -40.693764
 C         -45.882736     -118.751221      -39.395649
 C         -44.778099     -117.994499      -40.091213
 H         -42.447998     -120.713600      -40.133789
 H         -42.502716     -119.453911      -38.877911
 H         -46.124912     -120.627945      -38.085629
 H         -45.039558     -119.366814      -37.448093
 H         -44.138172     -119.701645      -41.466797
 H         -43.101940     -118.344894      -41.244247
 H         -46.525372     -118.064705      -38.820389
 H         -46.620438     -119.152260      -39.995609
 H         -45.217319     -117.173805      -40.597591
 H         -44.236958     -117.428253      -39.334866
