20
 generated by VMD
 C         -63.312695     -174.824738      -55.237621
 N         -62.710960     -174.338715      -56.079102
 H         -65.083908     -173.397324      -57.767780
 H         -63.800079     -175.398254      -54.479973
 C         -64.729324     -172.484451      -58.272129
 C         -64.694519     -171.176529      -57.516670
 C         -64.443443     -172.489319      -59.794399
 C         -64.014946     -169.945801      -58.191727
 C         -63.663109     -171.309799      -60.299377
 C         -64.103058     -169.883148      -59.743351
 H         -64.150566     -171.310196      -56.499073
 H         -65.730751     -170.902039      -57.240150
 H         -63.776569     -173.336929      -60.065907
 H         -65.412422     -172.563126      -60.433517
 H         -63.015633     -170.021332      -58.002285
 H         -64.227333     -168.996170      -57.743656
 H         -63.657036     -171.308929      -61.387527
 H         -62.621983     -171.404907      -59.870216
 H         -63.448616     -169.120590      -60.103264
 H         -65.109055     -169.598999      -60.083195
