20
 generated by VMD
 C         -20.362068      -57.258556      -16.763826
 N         -19.374144      -56.639053      -16.840755
 H         -22.493851      -60.012672      -17.829294
 H         -21.191360      -58.131771      -16.661728
 C         -22.446835      -60.431473      -16.765753
 C         -23.666401      -60.754398      -16.000734
 C         -21.203175      -61.164505      -16.710928
 C         -23.257116      -61.068207      -14.560245
 C         -21.074915      -62.138844      -15.519680
 C         -22.059679      -62.011475      -14.411260
 H         -24.239918      -61.652351      -16.384783
 H         -24.274220      -59.873394      -16.049242
 H         -20.982204      -61.710228      -17.663490
 H         -20.399809      -60.440445      -16.591188
 H         -24.116138      -61.365013      -13.909158
 H         -23.006714      -60.113564      -14.070332
 H         -20.062901      -62.037296      -15.020781
 H         -21.307446      -63.123550      -16.004292
 H         -22.299259      -62.984070      -13.952106
 H         -21.551643      -61.667114      -13.531431
