20
 generated by VMD
 C         -21.891994      -55.379238      -17.351824
 N         -21.946022      -55.628002      -18.502489
 H         -22.132580      -57.163815      -14.446948
 H         -22.154619      -54.779694      -16.467176
 C         -21.387487      -57.852310      -14.222552
 C         -20.974365      -58.433506      -12.898163
 C         -20.313139      -57.928211      -15.335341
 C         -20.785807      -59.996803      -13.099930
 C         -20.155323      -59.413235      -15.583710
 C         -19.859144      -60.225117      -14.274438
 H         -21.718044      -58.265907      -12.117611
 H         -20.100588      -57.965954      -12.569270
 H         -20.415337      -57.262196      -16.246088
 H         -19.349867      -57.658428      -14.817179
 H         -21.805143      -60.367626      -13.442265
 H         -20.510965      -60.558388      -12.193185
 H         -19.443914      -59.650463      -16.406052
 H         -21.159004      -59.685856      -15.916478
 H         -19.854055      -61.304642      -14.589159
 H         -18.883543      -59.919640      -14.008123
