20
 generated by VMD
 C          -2.560781      -18.002829        2.592726
 N          -1.941095      -17.130070        2.263275
 H          -5.224248      -18.278366        0.910194
 H          -5.290992      -19.448910       -0.374039
 C          -5.813658      -18.642923        0.107469
 C          -5.867784      -17.489470       -0.903062
 C          -7.228864      -19.135670        0.434313
 C          -6.693520      -17.782143       -2.096805
 C          -7.935124      -19.507252       -0.876010
 C          -8.093625      -18.263165       -1.749872
 H          -4.762938      -17.273207       -1.062932
 H          -6.246547      -16.632231       -0.368921
 H          -7.190920      -20.049212        1.088728
 H          -7.840456      -18.351488        1.040655
 H          -6.213522      -18.472380       -2.820534
 H          -6.822652      -16.888346       -2.645486
 H          -8.927648      -19.917545       -0.688517
 H          -7.413980      -20.303080       -1.377093
 H          -8.570668      -18.583925       -2.665011
 H          -8.707663      -17.474850       -1.281717
