20
 generated by VMD
 C         -59.775368     -152.371506      -51.050884
 N         -60.596790     -153.136353      -51.014023
 H         -56.689907     -152.021637      -48.540154
 H         -58.957291     -151.685257      -51.064350
 C         -56.019569     -151.691071      -49.344513
 C         -54.940002     -152.636993      -49.837929
 C         -55.803593     -150.218384      -49.510048
 C         -54.045135     -152.154251      -50.889462
 C         -55.101048     -149.867615      -50.836002
 C         -53.856014     -150.671692      -50.952106
 H         -55.275337     -153.638321      -50.018700
 H         -54.286198     -152.635513      -48.879707
 H         -56.763988     -149.736771      -49.647655
 H         -55.336563     -149.844162      -48.597118
 H         -54.533520     -152.426620      -51.864578
 H         -53.082241     -152.616699      -50.938652
 H         -54.809971     -148.766968      -51.120808
 H         -55.831982     -150.188278      -51.511436
 H         -53.621059     -150.453018      -52.066616
 H         -53.110569     -150.305527      -50.259594
