20
 generated by VMD
 C         -60.683327     -153.675369      -51.513512
 N         -61.443867     -154.418350      -52.085365
 H         -57.593513     -153.763580      -52.274761
 H         -60.118015     -152.984787      -50.882889
 C         -56.742348     -153.495377      -51.656822
 C         -56.776154     -153.838623      -50.209312
 C         -55.833012     -152.469223      -52.203278
 C         -55.312069     -154.033569      -49.739918
 C         -54.382801     -152.599335      -51.653652
 C         -54.444817     -152.874100      -50.078621
 H         -57.332264     -154.790161      -50.186352
 H         -57.311352     -152.970871      -49.650482
 H         -55.900528     -152.365753      -53.253357
 H         -56.214207     -151.538940      -51.794426
 H         -54.938652     -154.967865      -50.040779
 H         -55.311245     -154.060226      -48.640003
 H         -53.887695     -151.664871      -51.712078
 H         -54.043179     -153.367340      -52.402424
 H         -53.481705     -152.949890      -49.474022
 H         -54.900356     -152.020538      -49.742832
