20
 generated by VMD
 C         -68.867340     -180.473495      -62.535969
 N         -69.961395     -180.543213      -62.121681
 H         -66.823608     -180.966949      -59.452114
 H         -67.844376     -180.465652      -62.809250
 C         -66.451653     -179.977325      -59.884888
 C         -65.164413     -180.163513      -60.702454
 C         -66.690636     -178.717300      -59.118778
 C         -65.143066     -178.957794      -61.773445
 C         -66.378418     -177.513870      -60.082710
 C         -65.049095     -177.699982      -60.897602
 H         -65.421188     -181.011703      -61.296715
 H         -64.272179     -180.309113      -60.082878
 H         -67.728302     -178.761566      -58.800446
 H         -66.041382     -178.454330      -58.243134
 H         -65.964928     -178.986221      -62.446159
 H         -64.283928     -179.100388      -62.421577
 H         -66.247185     -176.640335      -59.381691
 H         -67.226990     -177.381653      -60.747364
 H         -64.900276     -176.774048      -61.587830
 H         -64.222336     -177.851364      -60.079273
