20
 generated by VMD
 C         -49.915218     -127.587891      -39.286304
 N         -49.136517     -126.715614      -39.210373
 H         -47.211246     -126.391312      -41.430557
 H         -50.767788     -128.274719      -39.196701
 C         -46.272938     -125.678596      -41.312859
 C         -45.114063     -126.045547      -40.428509
 C         -46.587936     -124.198769      -41.101711
 C         -43.855881     -125.220062      -40.690964
 C         -45.418629     -123.284843      -41.478977
 C         -44.189056     -123.737350      -40.573204
 H         -44.846836     -127.038185      -40.468544
 H         -45.457680     -125.923698      -39.401688
 H         -47.408203     -123.735535      -41.753647
 H         -46.953609     -124.089577      -40.096325
 H         -43.447578     -125.462685      -41.673450
 H         -43.058289     -125.440849      -39.985661
 H         -45.723312     -122.273560      -41.102192
 H         -45.070969     -123.115471      -42.522995
 H         -43.269875     -123.104652      -40.793221
 H         -44.401981     -123.475204      -39.542686
