20
 generated by VMD
 C         -41.090065     -104.427414      -35.786167
 N         -42.012695     -104.902687      -36.303600
 H         -37.982479     -104.368477      -33.817085
 H         -40.174030     -104.161690      -35.350548
 C         -38.151646     -104.969032      -32.980659
 C         -36.885605     -105.338196      -32.151955
 C         -39.190899     -105.943352      -33.229973
 C         -37.075996     -106.487518      -31.101860
 C         -39.367863     -107.058708      -32.164158
 C         -37.959576     -107.584755      -31.793106
 H         -36.471867     -104.488503      -31.726181
 H         -36.159794     -105.818916      -32.759007
 H         -40.042889     -105.318390      -33.297966
 H         -39.085564     -106.419281      -34.275433
 H         -37.541054     -105.992805      -30.176920
 H         -36.068726     -106.729050      -30.686455
 H         -39.995777     -107.807816      -32.563103
 H         -39.952496     -106.570320      -31.323915
 H         -38.204674     -108.451210      -31.075686
 H         -37.494377     -108.043381      -32.645954
