20
 generated by VMD
 C         -27.516611      -84.554565      -26.241764
 N         -28.076170      -85.269035      -26.995092
 H         -31.385105      -84.616959      -25.994841
 H         -26.909903      -83.956367      -25.522797
 C         -31.943485      -85.475945      -25.802282
 C         -32.106064      -85.968697      -24.456070
 C         -32.087784      -86.511185      -26.837406
 C         -33.406631      -86.720238      -24.152357
 C         -33.353676      -87.432167      -26.579990
 C         -33.546555      -87.914452      -25.094603
 H         -32.060471      -85.029045      -23.835806
 H         -31.191858      -86.452560      -24.288469
 H         -32.355110      -86.032043      -27.757982
 H         -31.154036      -87.180855      -26.998621
 H         -34.250916      -86.063004      -24.264002
 H         -33.400448      -87.009102      -23.119970
 H         -33.432850      -88.229431      -27.315153
 H         -34.223568      -86.787560      -26.709558
 H         -34.539139      -88.354431      -24.917217
 H         -32.755505      -88.616432      -24.908121
