20
 generated by VMD
 C         -29.787951      -89.439934      -25.241938
 N         -29.148264      -89.713196      -26.122162
 H         -32.065453      -91.112061      -26.912064
 H         -30.595665      -89.158524      -24.491100
 C         -32.889324      -90.764618      -27.544538
 C         -34.257088      -91.116806      -27.032234
 C         -32.724930      -89.511345      -28.388657
 C         -35.082127      -89.899475      -26.646358
 C         -33.455799      -88.374535      -27.754374
 C         -34.975220      -88.736603      -27.713676
 H         -34.299900      -91.767891      -26.157076
 H         -34.908783      -91.748291      -27.741112
 H         -31.620775      -89.457291      -28.435013
 H         -33.083073      -89.708679      -29.394470
 H         -34.862946      -89.543915      -25.549768
 H         -36.136768      -90.053398      -26.729387
 H         -33.206940      -87.540230      -28.438242
 H         -33.203911      -87.996452      -26.704185
 H         -35.588692      -87.858391      -27.475121
 H         -35.416218      -89.005257      -28.650932
