20
 generated by VMD
 C         -49.565857     -141.556763      -45.712833
 N         -49.618320     -142.362976      -44.833263
 H         -51.663998     -138.573135      -46.343903
 H         -49.731777     -140.958572      -46.617996
 C         -52.253712     -139.464096      -46.456779
 C         -52.864265     -139.598663      -47.824093
 C         -52.929466     -140.231979      -45.329788
 C         -53.074638     -141.064285      -48.182888
 C         -53.283871     -141.565262      -45.792263
 C         -53.896954     -141.802200      -47.136070
 H         -52.099144     -139.266693      -48.505867
 H         -53.796211     -139.088531      -48.046074
 H         -52.301224     -140.263428      -44.375233
 H         -53.885265     -139.657471      -45.071850
 H         -52.118084     -141.673584      -48.232410
 H         -53.556267     -140.932022      -49.147308
 H         -54.031639     -141.973419      -45.031063
 H         -52.325451     -142.073334      -45.693043
 H         -53.791561     -142.800262      -47.374832
 H         -54.924244     -141.503708      -47.130314
