20
 generated by VMD
 C         -50.944572     -128.056000      -41.727428
 N         -51.988941     -128.598862      -41.852371
 H         -47.229744     -128.251007      -41.348488
 H         -50.145058     -127.443550      -41.338673
 C         -46.774677     -127.406616      -40.723186
 C         -45.467464     -127.868309      -40.090965
 C         -46.840012     -125.986649      -41.168934
 C         -44.215565     -127.400200      -40.822788
 C         -45.564240     -125.513077      -41.925045
 C         -44.265812     -125.866539      -41.109470
 H         -45.406124     -129.026535      -40.033279
 H         -45.456425     -127.609741      -39.028660
 H         -47.721504     -125.952850      -41.930168
 H         -46.931156     -125.367790      -40.287434
 H         -44.345604     -127.828087      -41.789810
 H         -43.325161     -127.675446      -40.226665
 H         -45.535854     -124.418404      -42.048973
 H         -45.514515     -126.037003      -42.900806
 H         -43.465363     -125.517929      -41.726711
 H         -44.329895     -125.212807      -40.232853
