20
 generated by VMD
 C         -20.218018      -56.849720      -16.940798
 N         -20.962904      -56.440624      -16.085991
 H         -22.230593      -59.849888      -17.822350
 H         -19.848425      -57.253117      -17.768698
 C         -22.139883      -60.212624      -16.846128
 C         -22.643744      -59.532589      -15.569584
 C         -21.902092      -61.616840      -16.703079
 C         -21.937609      -59.924118      -14.254048
 C         -20.885107      -61.892509      -15.577397
 C         -21.377409      -61.368504      -14.193851
 H         -23.671867      -59.884830      -15.423450
 H         -22.703419      -58.491901      -15.685380
 H         -22.898226      -62.136578      -16.514530
 H         -21.459482      -61.904793      -17.670738
 H         -22.575583      -59.735519      -13.313207
 H         -21.168524      -59.129528      -14.108722
 H         -19.850964      -61.661835      -15.807478
 H         -20.914913      -62.961811      -15.438451
 H         -22.252748      -61.983807      -13.850216
 H         -20.592403      -61.419720      -13.458382
