20
 generated by VMD
 C         -40.911453     -100.803551      -32.788574
 N         -41.682846     -101.232590      -32.009449
 H         -38.182575     -103.346390      -32.507191
 H         -40.352962     -100.402061      -33.708488
 C         -37.402580     -102.847389      -31.959957
 C         -36.147896     -102.723656      -32.884777
 C         -37.274887     -102.797836      -30.454378
 C         -35.219685     -101.642059      -32.375118
 C         -36.314884     -101.643257      -30.108055
 C         -35.028740     -101.645424      -30.865473
 H         -36.431503     -102.348854      -33.922531
 H         -35.657421     -103.685616      -33.077446
 H         -38.190441     -102.697815      -30.002508
 H         -36.880661     -103.817657      -30.216337
 H         -35.598804     -100.619934      -32.483845
 H         -34.143425     -101.670403      -32.843006
 H         -35.878883     -101.691513      -29.017775
 H         -36.755497     -100.678780      -30.163446
 H         -34.403946     -100.745766      -30.561703
 H         -34.433689     -102.563919      -30.671671
