20
 generated by VMD
 C         -31.354851      -75.604980      -23.619064
 N         -30.946043      -76.098244      -24.603308
 H         -29.571939      -78.335938      -22.140606
 H         -32.026203      -75.189201      -22.844065
 C         -28.503056      -78.155159      -21.958651
 C         -27.638697      -78.385704      -23.135345
 C         -27.911427      -78.116745      -20.582346
 C         -26.362429      -77.427361      -22.986937
 C         -26.778475      -77.072655      -20.529217
 C         -25.816566      -77.220421      -21.615730
 H         -28.245943      -77.889824      -24.041897
 H         -27.362679      -79.471558      -23.211531
 H         -28.713993      -77.876686      -19.874569
 H         -27.419250      -79.026955      -20.334616
 H         -26.645952      -76.427673      -23.325720
 H         -25.575058      -77.846863      -23.640446
 H         -26.287783      -77.081192      -19.488810
 H         -27.165081      -76.016808      -20.648970
 H         -25.058287      -76.379463      -21.726379
 H         -25.101717      -77.992012      -21.430788
