20
 generated by VMD
 C         -60.304413     -170.541428      -55.153393
 N         -59.221714     -170.839874      -55.333908
 H         -63.100746     -170.567108      -56.679428
 H         -61.347763     -170.270355      -55.083210
 C         -63.389248     -169.577713      -56.899513
 C         -62.351849     -168.827148      -57.718689
 C         -64.562477     -168.779266      -56.375797
 C         -62.998775     -167.968094      -58.757648
 C         -65.199127     -167.930969      -57.455681
 C         -64.069672     -167.125824      -58.079441
 H         -61.693596     -169.543640      -58.117199
 H         -61.801640     -168.088058      -57.024956
 H         -65.123238     -169.672501      -55.906055
 H         -64.184685     -168.144470      -55.537884
 H         -63.437626     -168.476456      -59.582264
 H         -62.265217     -167.332031      -59.270214
 H         -65.940865     -167.196198      -56.973591
 H         -65.770905     -168.617249      -58.256847
 H         -64.413177     -166.333557      -58.753277
 H         -63.566902     -166.673447      -57.230606
