20
 generated by VMD
 C         -31.321152      -77.634201      -26.097202
 N         -31.705469      -77.984001      -27.091320
 H         -29.276342      -79.198242      -24.220371
 H         -31.149811      -77.175049      -25.155050
 C         -28.945890      -79.718437      -23.303726
 C         -27.507124      -79.682640      -23.038002
 C         -29.846743      -80.626083      -22.646374
 C         -26.940990      -80.516548      -21.954308
 C         -29.296133      -81.434334      -21.535000
 C         -27.770136      -81.764313      -21.616411
 H         -27.311255      -78.569901      -22.978270
 H         -27.034153      -80.187225      -23.978086
 H         -30.652061      -80.030815      -22.320896
 H         -30.268312      -81.384476      -23.388216
 H         -26.947172      -79.886414      -21.067015
 H         -25.837574      -80.790459      -22.071489
 H         -29.865604      -82.416809      -21.543200
 H         -29.466465      -81.059517      -20.579811
 H         -27.415434      -82.183250      -20.591555
 H         -27.723057      -82.634956      -22.328827
