20
 generated by VMD
 C         -41.372551     -102.351471      -35.503414
 N         -41.540176     -103.425316      -35.900791
 H         -39.277576     -105.036758      -33.565678
 H         -41.374569     -101.309113      -35.148216
 C         -38.565220     -105.092743      -32.852837
 C         -37.292778     -104.415962      -32.857853
 C         -38.938850     -106.310829      -32.045609
 C         -36.458260     -104.663994      -31.638969
 C         -38.063232     -106.462433      -30.693123
 C         -36.545528     -106.136093      -31.049881
 H         -37.519855     -103.353676      -32.937447
 H         -36.761864     -104.726700      -33.729916
 H         -39.973724     -106.203560      -31.795099
 H         -38.948326     -107.170982      -32.789722
 H         -36.813263     -103.912712      -30.937798
 H         -35.437824     -104.524338      -31.958176
 H         -37.937550     -107.508949      -30.383850
 H         -38.514999     -105.962761      -29.897989
 H         -35.735123     -106.211624      -30.211998
 H         -36.279770     -106.873802      -31.775824
