20
 generated by VMD
 C         -48.717453     -133.230240      -47.212082
 N         -48.161385     -133.231277      -48.213737
 H         -48.694954     -134.425552      -43.936047
 H         -49.394089     -133.337631      -46.357910
 C         -49.663692     -134.978622      -43.794323
 C         -49.888889     -136.241501      -44.484356
 C         -50.753353     -134.379776      -42.895378
 C         -50.390514     -137.293808      -43.420990
 C         -51.126301     -135.382797      -41.822590
 C         -51.473755     -136.811768      -42.447521
 H         -48.996513     -136.546158      -45.089592
 H         -50.703869     -136.038589      -45.149677
 H         -50.241199     -133.512527      -42.358322
 H         -51.602345     -133.986115      -43.402519
 H         -49.511200     -137.727875      -42.964359
 H         -50.841576     -138.221008      -43.926670
 H         -52.085793     -134.958588      -41.370636
 H         -50.366032     -135.471466      -40.925095
 H         -51.408218     -137.613388      -41.638218
 H         -52.343124     -136.805359      -43.061409
