20
 generated by VMD
 C         -68.648300     -184.835617      -65.959412
 N         -69.586906     -185.497040      -65.989365
 H         -69.792557     -182.819611      -63.267052
 H         -67.719475     -184.212677      -65.840279
 C         -69.196548     -183.639130      -62.923477
 C         -69.932014     -184.966736      -62.618729
 C         -67.807167     -183.446503      -62.513748
 C         -69.076828     -186.016464      -61.913654
 C         -67.439407     -184.124390      -61.199081
 C         -68.440292     -185.221451      -60.731461
 H         -70.444519     -185.259003      -63.548710
 H         -70.757599     -184.704605      -61.903389
 H         -67.120354     -183.568390      -63.268269
 H         -67.723862     -182.411118      -62.198982
 H         -68.203667     -186.335342      -62.501434
 H         -69.775742     -186.874878      -61.763206
 H         -67.394272     -183.226593      -60.563442
 H         -66.505898     -184.620636      -61.178642
 H         -67.775444     -185.920853      -60.177502
 H         -69.091286     -184.740677      -60.168671
