20
 generated by VMD
 C         -35.495834      -97.361389      -25.674404
 N         -34.691605      -97.819206      -26.397884
 H         -35.689384      -94.371109      -27.797853
 H         -36.135048      -96.974144      -24.902990
 C         -35.301701      -94.427391      -28.819191
 C         -35.985916      -95.306480      -29.795933
 C         -33.898529      -93.822479      -29.002155
 C         -35.727432      -94.682846      -31.138721
 C         -33.787167      -93.387100      -30.461796
 C         -34.249050      -94.385948      -31.412775
 H         -37.022572      -95.247513      -29.614494
 H         -35.682476      -96.363342      -29.595259
 H         -33.617260      -93.065140      -28.291401
 H         -33.104717      -94.550362      -28.924517
 H         -36.427547      -93.875107      -31.286394
 H         -35.970661      -95.486374      -31.932411
 H         -32.790497      -93.016724      -30.649334
 H         -34.462650      -92.458855      -30.669466
 H         -34.103809      -93.969284      -32.507713
 H         -33.830505      -95.301208      -31.226656
