20
 generated by VMD
 C         -60.003090     -153.246872      -51.578060
 N         -60.298439     -152.163193      -51.468586
 H         -57.309269     -153.593079      -49.668957
 H         -59.712811     -154.260269      -51.638569
 C         -56.416618     -153.102524      -50.030514
 C         -55.023849     -153.202454      -49.355968
 C         -56.812798     -151.782272      -50.691944
 C         -53.910358     -152.749771      -50.393803
 C         -55.637989     -151.053131      -51.398346
 C         -54.209488     -151.329758      -50.805885
 H         -54.823669     -154.213028      -49.170029
 H         -54.923618     -152.653351      -48.392670
 H         -57.574291     -151.954208      -51.427116
 H         -57.181000     -151.039902      -49.947586
 H         -53.936443     -153.470398      -51.244839
 H         -52.921543     -152.632492      -49.917423
 H         -55.883595     -150.003418      -51.543999
 H         -55.482136     -151.391327      -52.432953
 H         -53.489258     -150.961914      -51.541328
 H         -54.268639     -150.756744      -49.926296
