20
 generated by VMD
 C         -18.011921      -48.545197       -7.244864
 N         -17.807804      -48.119015       -6.237558
 H         -16.341661      -48.501419      -10.369241
 H         -15.779678      -48.918980      -12.004749
 C         -16.264212      -48.157551      -11.403526
 C         -15.487897      -46.832684      -11.471133
 C         -17.663542      -47.928085      -11.944313
 C         -15.344748      -46.465649      -12.952924
 C         -17.676874      -47.195335      -13.285324
 C         -16.657108      -46.069210      -13.551991
 H         -14.443503      -47.079197      -11.167256
 H         -15.937309      -45.941536      -11.039000
 H         -18.171955      -48.879753      -12.026723
 H         -18.231182      -47.287376      -11.249328
 H         -14.830896      -47.257378      -13.505637
 H         -14.669722      -45.621281      -12.976946
 H         -18.693220      -46.921917      -13.511684
 H         -17.473600      -47.915871      -14.073567
 H         -16.585196      -45.794277      -14.611867
 H         -17.004042      -45.137627      -13.074628
