20
 generated by VMD
 C         -79.860298     -205.444702      -71.680603
 N         -79.909637     -206.557571      -71.540527
 H         -76.514687     -203.799881      -71.996857
 H         -79.939156     -204.346298      -71.550392
 C         -76.207352     -203.871628      -70.932327
 C         -75.384598     -202.742523      -70.417557
 C         -76.325661     -205.125488      -70.084969
 C         -73.933868     -203.224518      -70.324387
 C         -75.071556     -205.168777      -69.001923
 C         -73.749672     -204.662582      -69.776039
 H         -75.718224     -202.269257      -69.461250
 H         -75.354568     -201.942551      -71.110939
 H         -77.297081     -205.209000      -69.501442
 H         -76.213829     -206.011002      -70.749268
 H         -73.277061     -202.530975      -69.675919
 H         -73.425667     -203.243835      -71.315384
 H         -74.965775     -206.272400      -68.726501
 H         -75.212479     -204.570206      -68.159874
 H         -72.848404     -204.931244      -69.200325
 H         -73.713882     -205.294968      -70.651741
