20
 generated by VMD
 C         -63.183460     -172.826157      -55.356888
 N         -62.760326     -173.834366      -54.973503
 H         -61.771103     -171.730560      -58.085831
 H         -63.679089     -171.932800      -55.756111
 C         -62.547115     -171.030075      -58.319534
 C         -62.379852     -169.543274      -58.131859
 C         -63.688278     -171.563538      -59.216690
 C         -63.713276     -168.773026      -58.191742
 C         -64.878922     -170.596344      -59.288391
 C         -65.046806     -169.457794      -58.280777
 H         -61.680737     -169.210770      -58.925732
 H         -61.912575     -169.388947      -57.137787
 H         -63.223495     -171.569733      -60.196964
 H         -63.966961     -172.468887      -58.675804
 H         -63.643406     -167.994888      -59.109905
 H         -63.727032     -168.144699      -57.288242
 H         -65.752632     -171.222809      -59.039322
 H         -65.099640     -170.086319      -60.249222
 H         -65.825874     -168.866409      -58.621777
 H         -65.269974     -169.831696      -57.256512
