20
 generated by VMD
 C         -21.951130      -67.163025      -16.668852
 N         -21.032364      -66.904930      -16.003138
 H         -24.063858      -64.967354      -17.985044
 H         -22.886919      -67.396576      -16.973457
 C         -24.507532      -65.691101      -18.602741
 C         -23.910563      -66.265190      -19.795160
 C         -25.835756      -66.168663      -18.136551
 C         -24.397676      -67.759186      -20.093643
 C         -26.184864      -67.708176      -18.501623
 C         -25.910460      -68.005486      -19.928883
 H         -22.972361      -66.376282      -19.334131
 H         -23.950193      -65.608971      -20.613367
 H         -25.940315      -66.225250      -17.025438
 H         -26.652027      -65.438843      -18.569754
 H         -23.903515      -68.452011      -19.414478
 H         -24.167561      -68.078140      -21.120426
 H         -27.246416      -67.910645      -18.407585
 H         -25.721857      -68.471519      -17.819599
 H         -26.128031      -69.089478      -20.060480
 H         -26.468784      -67.468872      -20.743462
