20
 generated by VMD
 C         -30.846331      -75.564583      -21.362741
 N         -31.913322      -75.223457      -21.063030
 H         -27.413826      -75.260834      -19.656605
 H         -29.897633      -76.015938      -21.882265
 C         -26.855352      -74.870987      -20.470903
 C         -26.555664      -76.051376      -21.322773
 C         -25.817896      -73.782829      -20.386198
 C         -26.024233      -75.692253      -22.686028
 C         -25.345684      -73.312027      -21.759291
 C         -24.923117      -74.647781      -22.638649
 H         -27.393497      -76.627342      -21.342764
 H         -25.742355      -76.584000      -20.812906
 H         -26.314154      -72.968941      -19.640743
 H         -24.899130      -74.139328      -19.879251
 H         -26.818676      -75.305428      -23.329771
 H         -25.581091      -76.574333      -23.147280
 H         -24.445427      -72.584267      -21.715185
 H         -26.201180      -72.968452      -22.422220
 H         -24.552588      -74.277397      -23.578289
 H         -24.093733      -75.223114      -22.200001
