20
 generated by VMD
 C         -79.519714     -206.872787      -74.706779
 N         -80.246567     -206.030731      -74.257790
 H         -78.309555     -206.723404      -71.801346
 H         -78.930733     -207.571960      -75.217979
 C         -77.434151     -206.981567      -71.268227
 C         -76.125229     -206.168259      -71.505386
 C         -77.313698     -208.271896      -70.388710
 C         -75.390862     -206.008423      -70.211212
 C         -76.394615     -208.090714      -69.205788
 C         -75.154137     -207.375992      -69.557701
 H         -76.421692     -205.235855      -71.894028
 H         -75.571503     -206.644043      -72.324577
 H         -78.363541     -208.357193      -69.973854
 H         -77.120110     -209.148895      -70.989456
 H         -76.076523     -205.329803      -69.607094
 H         -74.426147     -205.465271      -70.178497
 H         -76.174568     -209.018127      -68.674873
 H         -76.955917     -207.411102      -68.494209
 H         -74.761452     -207.250031      -68.564125
 H         -74.352242     -207.930893      -70.095207
