20
 generated by VMD
 C         -28.183144      -87.938705      -26.523270
 N         -28.279959      -86.878235      -26.062109
 H         -31.348677      -89.470665      -25.936653
 H         -28.121719      -89.035629      -26.890591
 C         -32.217541      -88.862007      -26.209644
 C         -33.115128      -88.717567      -25.117706
 C         -32.645390      -88.841263      -27.610653
 C         -34.392235      -87.915443      -25.381521
 C         -33.766857      -87.625336      -27.834297
 C         -34.905251      -87.817612      -26.835268
 H         -32.514118      -88.362999      -24.316797
 H         -33.489216      -89.769463      -24.883749
 H         -31.917297      -88.656845      -28.348833
 H         -33.161057      -89.777084      -27.865648
 H         -34.090328      -86.898735      -25.015474
 H         -35.220516      -88.165855      -24.769621
 H         -33.988594      -87.660492      -28.959793
 H         -33.191254      -86.702950      -27.731550
 H         -35.532982      -86.932007      -27.011028
 H         -35.418015      -88.731544      -27.059221
