20
 generated by VMD
 C         -70.283096     -181.191025      -63.660213
 N         -71.039749     -181.973068      -63.301414
 H         -68.096024     -181.487640      -60.821438
 H         -69.539902     -180.438126      -63.966759
 C         -67.150810     -180.873993      -60.840729
 C         -65.883987     -181.483337      -60.530884
 C         -67.392059     -179.437439      -60.489956
 C         -64.589775     -180.571869      -60.709892
 C         -66.088844     -178.588455      -60.948364
 C         -64.825325     -179.148941      -60.179073
 H         -65.793709     -182.383179      -61.185463
 H         -66.065628     -181.596680      -59.478691
 H         -68.287193     -178.978195      -61.008743
 H         -67.433708     -179.152634      -59.424992
 H         -64.282097     -180.650940      -61.838203
 H         -63.619869     -180.959290      -60.195198
 H         -66.200722     -177.484756      -60.831684
 H         -65.887894     -178.858826      -61.983131
 H         -63.937454     -178.496445      -60.338066
 H         -64.890358     -179.064117      -59.145569
