20
 generated by VMD
 C         -51.414299     -129.753906      -45.191540
 N         -51.662319     -130.064453      -46.335018
 H         -48.472855     -130.300049      -43.489891
 H         -51.010994     -129.385757      -44.257393
 C         -47.945782     -130.454163      -42.589382
 C         -48.094761     -131.746216      -41.924831
 C         -47.586487     -129.242615      -41.711208
 C         -46.801693     -132.099777      -41.133823
 C         -46.297146     -129.558411      -40.933910
 C         -46.417961     -130.877319      -40.172115
 H         -48.290676     -132.402832      -42.729771
 H         -49.098705     -131.678482      -41.349445
 H         -47.539894     -128.392853      -42.399876
 H         -48.356403     -128.979279      -41.065617
 H         -45.962700     -132.330750      -41.758286
 H         -46.964783     -133.025925      -40.526958
 H         -46.155651     -128.665497      -40.348080
 H         -45.409931     -129.632614      -41.736118
 H         -45.432095     -131.183594      -39.717571
 H         -47.065357     -130.893387      -39.302818
