20
 generated by VMD
 C         -58.105724     -165.632935      -56.297035
 N         -57.250473     -165.229004      -56.994690
 H         -60.626541     -164.478088      -53.799179
 H         -58.975216     -165.923325      -55.668976
 C         -61.288742     -164.837189      -54.528046
 C         -61.789280     -166.262527      -54.635277
 C         -61.860249     -163.975525      -55.662773
 C         -63.294498     -166.453156      -54.799347
 C         -63.363243     -164.083649      -55.893509
 C         -63.916508     -165.518585      -55.969280
 H         -61.409481     -166.788818      -53.811749
 H         -61.219879     -166.725372      -55.465382
 H         -61.477325     -162.960739      -55.388317
 H         -61.333210     -164.311142      -56.507862
 H         -63.924885     -166.235992      -54.003540
 H         -63.492405     -167.489365      -55.025494
 H         -63.566799     -163.303802      -56.724102
 H         -63.912140     -163.459900      -55.085518
 H         -65.046005     -165.500961      -55.918987
 H         -63.516495     -165.847641      -57.021904
