20
 generated by VMD
 C         -72.924667     -199.367859      -65.588989
 N         -73.896973     -199.988297      -65.607483
 H         -71.275543     -196.908646      -67.184135
 H         -72.006767     -198.877930      -65.888489
 C         -72.218941     -196.584213      -67.608749
 C         -73.155838     -195.533844      -67.067169
 C         -72.445702     -196.921341      -69.087502
 C         -74.273918     -195.191483      -68.031158
 C         -73.841942     -197.394287      -69.306709
 C         -74.841431     -196.385880      -68.700096
 H         -72.597809     -194.665268      -66.710594
 H         -73.626213     -196.149094      -66.175697
 H         -72.175873     -196.110092      -69.710831
 H         -71.780296     -197.669891      -69.353584
 H         -73.836823     -194.523712      -68.763550
 H         -75.094154     -194.602325      -67.582970
 H         -74.031586     -198.339218      -68.769264
 H         -74.007172     -197.562241      -70.376961
 H         -75.362221     -195.978470      -69.469147
 H         -75.378342     -197.014175      -67.939423
