20
 generated by VMD
 C         -29.004927      -88.154808      -25.228447
 N         -28.766306      -87.586189      -26.185198
 H         -31.350286      -89.882584      -27.076530
 H         -29.390190      -88.641731      -24.403469
 C         -32.300591      -89.339661      -27.006811
 C         -32.750557      -89.142563      -25.624353
 C         -33.156479      -89.155342      -28.172861
 C         -33.739380      -88.034996      -25.567820
 C         -33.976402      -87.887291      -28.085165
 C         -34.789448      -87.948105      -26.736624
 H         -31.871777      -88.910141      -25.084616
 H         -33.321907      -90.064774      -25.380037
 H         -32.479027      -89.254288      -28.984066
 H         -33.775532      -90.078049      -28.180805
 H         -33.204212      -87.055382      -25.426208
 H         -34.296398      -88.043175      -24.674948
 H         -34.700718      -87.772255      -28.960577
 H         -33.443382      -86.941185      -28.041162
 H         -35.519142      -87.003731      -26.704420
 H         -35.408298      -88.927711      -26.700243
