20
 generated by VMD
 C         -46.663933     -124.674744      -37.886620
 N         -46.963837     -124.485016      -36.770081
 H         -44.896107     -122.568810      -37.707249
 H         -46.495003     -125.117447      -38.883709
 C         -44.795277     -122.400978      -38.766273
 C         -43.501812     -122.397232      -39.515621
 C         -45.944927     -121.506767      -39.371269
 C         -43.652916     -122.656570      -41.038326
 C         -46.131191     -121.784332      -40.916851
 C         -44.828514     -121.708542      -41.675827
 H         -42.833138     -123.022102      -38.814419
 H         -43.032867     -121.397041      -39.531723
 H         -46.900818     -121.876289      -38.949413
 H         -45.861111     -120.420822      -39.120956
 H         -43.994484     -123.756027      -41.080524
 H         -42.813034     -122.275658      -41.567463
 H         -46.711243     -120.925476      -41.230797
 H         -46.816711     -122.672508      -41.028824
 H         -44.965561     -122.151299      -42.676277
 H         -44.516808     -120.679832      -41.821579
