20
 generated by VMD
 C         -21.104662      -52.468758      -11.410572
 N         -21.451321      -52.872608      -10.405446
 H         -19.647779      -50.064133      -13.706860
 H         -21.108391      -52.129314      -12.578268
 C         -18.857573      -50.778717      -13.303515
 C         -18.452642      -51.988991      -14.129503
 C         -18.033764      -50.359623      -12.100375
 C         -16.930161      -51.981136      -14.340736
 C         -16.523510      -50.289696      -12.328568
 C         -16.168730      -51.586468      -13.041514
 H         -19.036810      -51.927765      -15.078101
 H         -18.759975      -52.892891      -13.604891
 H         -18.524942      -49.428596      -11.767586
 H         -18.194654      -51.067375      -11.309856
 H         -16.644354      -51.466934      -15.274796
 H         -16.700277      -53.045666      -14.572149
 H         -15.904320      -50.129326      -11.340437
 H         -16.234579      -49.495457      -13.013570
 H         -15.089774      -51.483513      -13.370396
 H         -16.169151      -52.487869      -12.360406
