20
 generated by VMD
 C          -2.143033       -8.629241       -0.852306
 N          -1.794406       -8.176144        0.084959
 H          -3.017438       -9.527097        2.845075
 H          -1.828236      -10.739273        3.139387
 C          -2.943735      -10.529053        3.162055
 C          -3.554885      -11.468713        2.184443
 C          -3.550129      -10.734401        4.589272
 C          -3.368316      -12.927270        2.562930
 C          -3.413384      -12.248508        4.986045
 C          -3.943508      -13.248590        3.964473
 H          -3.018393      -11.276031        1.229051
 H          -4.588545      -11.188657        2.001346
 H          -2.814756      -10.198941        5.321593
 H          -4.607111      -10.337877        4.630086
 H          -2.251156      -13.089171        2.546223
 H          -3.797888      -13.558053        1.746951
 H          -3.862754      -12.291686        5.984884
 H          -2.344188      -12.394458        5.114622
 H          -3.603386      -14.238212        4.275943
 H          -5.010332      -13.195786        3.839272
