20
 generated by VMD
 C         -11.702371      -26.646626       -0.518253
 N         -12.649118      -26.350431       -1.051955
 H         -10.244755      -26.352610       -3.668468
 H          -9.331558      -25.638933       -5.016263
 C          -9.261216      -26.084223       -4.034384
 C          -8.474463      -27.367140       -4.303932
 C          -8.577030      -25.118429       -3.104553
 C          -6.946652      -27.223068       -4.394782
 C          -7.141630      -24.850508       -3.412781
 C          -6.369763      -26.139116       -3.495336
 H          -8.864372      -27.976099       -5.170354
 H          -8.697753      -28.065838       -3.427570
 H          -9.212417      -24.211601       -3.066985
 H          -8.616353      -25.574667       -2.139228
 H          -6.817312      -26.823963       -5.412066
 H          -6.419027      -28.167622       -4.472339
 H          -6.662200      -24.138529       -2.708919
 H          -6.994991      -24.364090       -4.387134
 H          -5.284855      -26.008713       -3.693532
 H          -6.375190      -26.552010       -2.454135
