20
 generated by VMD
 C         -27.646029      -84.708206      -26.561440
 N         -27.549957      -85.883842      -26.706978
 H         -31.390757      -84.899124      -25.848030
 H         -27.566959      -83.676437      -26.451691
 C         -32.172554      -85.656052      -25.707586
 C         -32.380741      -86.118790      -24.362474
 C         -32.208569      -86.574577      -26.864677
 C         -33.600693      -87.040123      -24.299429
 C         -33.456692      -87.615601      -26.910362
 C         -33.712803      -88.150230      -25.429539
 H         -32.545971      -85.112457      -23.815809
 H         -31.499687      -86.476860      -23.912394
 H         -32.344494      -85.998352      -27.777687
 H         -31.254105      -87.190430      -26.888618
 H         -34.462276      -86.318871      -24.276287
 H         -33.728672      -87.410156      -23.284485
 H         -33.338802      -88.419861      -27.625473
 H         -34.239697      -86.941887      -27.329716
 H         -34.754391      -88.524292      -25.194653
 H         -32.952526      -88.915070      -25.264011
