20
 generated by VMD
 C         -49.836708     -141.998734      -45.177128
 N         -49.152832     -142.955124      -45.315475
 H         -51.456181     -139.325378      -46.250729
 H         -50.483040     -141.165939      -44.997784
 C         -52.380527     -139.925308      -46.434216
 C         -52.469425     -140.124634      -47.883575
 C         -53.460976     -140.439011      -45.630951
 C         -52.855164     -141.523453      -48.246197
 C         -54.163681     -141.792084      -46.082321
 C         -54.230011     -141.830093      -47.600460
 H         -51.469715     -140.009094      -48.301723
 H         -53.097919     -139.255814      -48.210659
 H         -53.288795     -140.419342      -44.585136
 H         -54.353298     -139.833176      -45.503174
 H         -52.064190     -142.319077      -47.965855
 H         -53.003223     -141.563644      -49.404266
 H         -55.100060     -141.831223      -45.573139
 H         -53.619629     -142.684525      -45.831493
 H         -54.602676     -142.862167      -47.901684
 H         -55.014858     -141.114029      -48.005081
