20
 generated by VMD
 C         -19.786222      -62.097176      -17.700966
 N         -19.900999      -61.928001      -16.580685
 H         -22.112738      -64.570320      -16.533134
 H         -19.398012      -62.129047      -18.735498
 C         -23.071629      -64.838104      -17.017696
 C         -23.403755      -64.236732      -18.352867
 C         -24.093264      -65.318481      -16.087719
 C         -24.545641      -65.007492      -19.065708
 C         -25.243227      -65.946350      -16.847433
 C         -25.660183      -65.118553      -18.125397
 H         -22.552847      -64.228798      -18.966333
 H         -23.744661      -63.270500      -18.266367
 H         -23.617678      -65.948288      -15.230599
 H         -24.325497      -64.418320      -15.484498
 H         -24.176783      -66.025070      -19.198780
 H         -24.918915      -64.610222      -19.969524
 H         -26.123323      -65.883400      -16.150333
 H         -24.954758      -66.928673      -17.240654
 H         -26.483122      -65.661674      -18.647964
 H         -25.993551      -64.134506      -17.784948
