20
 generated by VMD
 C         -12.717545      -31.209919       -8.280691
 N         -12.253741      -30.275896       -7.893282
 H         -11.667546      -33.698341       -7.556110
 H         -12.468243      -33.079315       -6.149668
 C         -11.683054      -33.775391       -6.466515
 C         -10.435187      -33.374035       -5.769783
 C         -12.286428      -35.141102       -6.056547
 C         -10.436893      -33.618374       -4.285124
 C         -12.273812      -35.467453       -4.492495
 C         -10.895062      -35.051922       -3.896590
 H         -10.272374      -32.316914       -6.000764
 H          -9.585642      -33.932255       -6.149915
 H         -13.277029      -35.355408       -6.455847
 H         -11.605374      -35.933041       -6.403721
 H         -11.198432      -32.913040       -3.934139
 H          -9.409668      -33.403954       -3.954387
 H         -12.467186      -36.477421       -4.322050
 H         -13.079720      -34.806267       -4.032597
 H         -10.924526      -35.205013       -2.825300
 H         -10.103091      -35.748302       -4.263659
