20
 generated by VMD
 C         -38.548931     -109.488434      -36.327049
 N         -37.529297     -108.932442      -36.244541
 H         -42.239647     -110.043129      -36.711880
 H         -39.457268     -110.135956      -36.536919
 C         -42.102219     -110.806351      -35.865089
 C         -41.776749     -112.195145      -36.024014
 C         -42.677269     -110.284340      -34.605648
 C         -40.862511     -112.554771      -34.806641
 C         -41.738583     -110.744339      -33.425926
 C         -41.491524     -112.296379      -33.498726
 H         -41.137985     -112.299225      -36.956333
 H         -42.660397     -112.856842      -35.953674
 H         -42.937534     -109.166748      -34.602798
 H         -43.719994     -110.768761      -34.439098
 H         -39.881947     -111.918457      -34.880859
 H         -40.666626     -113.568817      -35.009476
 H         -42.029255     -110.371094      -32.415512
 H         -40.744511     -110.259041      -33.608261
 H         -40.920650     -112.550117      -32.660858
 H         -42.523472     -112.824974      -33.222832
