20
 generated by VMD
 C         -41.000275     -104.295265      -36.295078
 N         -41.901875     -105.017914      -36.384880
 H         -38.211113     -104.467583      -33.846546
 H         -40.002079     -103.838394      -36.351727
 C         -38.348171     -105.341888      -33.115875
 C         -37.104996     -105.727745      -32.218899
 C         -39.374401     -106.468071      -33.337990
 C         -37.346886     -106.696655      -31.140886
 C         -39.440014     -107.538925      -32.225903
 C         -38.060436     -107.867935      -31.661579
 H         -36.740845     -104.780678      -31.755827
 H         -36.378010     -106.188042      -32.842442
 H         -40.354324     -105.976860      -33.481792
 H         -39.185547     -106.872574      -34.342278
 H         -38.058895     -106.463570      -30.342113
 H         -36.412560     -106.925224      -30.615002
 H         -40.042412     -108.484612      -32.537731
 H         -40.095703     -107.103508      -31.396996
 H         -38.134300     -108.708900      -30.904818
 H         -37.419170     -108.314011      -32.430805
