20
 generated by VMD
 C         -30.475853      -75.600288      -22.652527
 N         -31.352699      -74.994736      -22.167149
 H         -28.587254      -78.287788      -21.121449
 H         -29.746117      -76.403862      -22.704575
 C         -27.900274      -77.523712      -21.491621
 C         -26.802454      -77.942467      -22.482426
 C         -27.625437      -76.210777      -20.779682
 C         -25.829519      -76.870216      -23.017656
 C         -26.818310      -75.201431      -21.478420
 C         -25.551235      -75.859680      -21.914795
 H         -27.231512      -78.371567      -23.418318
 H         -26.165182      -78.575294      -21.887409
 H         -28.559731      -75.765244      -20.517529
 H         -27.194092      -76.493958      -19.765488
 H         -26.406925      -76.441612      -23.857405
 H         -24.955261      -77.251770      -23.555445
 H         -26.677528      -74.417480      -20.822725
 H         -27.362143      -74.895859      -22.371418
 H         -24.951294      -75.056267      -22.327747
 H         -25.186449      -76.322495      -20.952963
