20
 generated by VMD
 C         -79.441437     -204.960983      -70.873375
 N         -80.547684     -205.368546      -70.856972
 H         -76.977020     -203.394180      -69.303154
 H         -78.383133     -204.534409      -70.932922
 C         -75.896500     -203.109680      -69.440170
 C         -75.489731     -201.852615      -70.221764
 C         -74.900970     -204.269058      -69.192169
 C         -74.020256     -201.649811      -70.467766
 C         -73.557243     -203.607742      -68.952042
 C         -73.236717     -203.036987      -70.259544
 H         -75.920029     -201.076218      -69.544640
 H         -76.016060     -201.861588      -71.145821
 H         -75.169235     -204.773239      -68.222305
 H         -74.767197     -204.971420      -70.107903
 H         -73.527847     -200.893723      -69.845345
 H         -73.900208     -201.351044      -71.508011
 H         -72.854263     -204.369827      -68.613525
 H         -73.618088     -202.642197      -68.173378
 H         -72.077911     -202.886307      -70.167465
 H         -73.513023     -203.738144      -71.134438
