20
 generated by VMD
 C         -57.288586     -150.920853      -48.495564
 N         -58.386242     -151.409882      -48.530872
 H         -54.298153     -148.845291      -47.257496
 H         -56.241421     -150.489716      -48.465473
 C         -54.442635     -148.716080      -48.319035
 C         -53.757420     -149.569336      -49.281193
 C         -54.529808     -147.333160      -48.884163
 C         -54.393372     -149.432480      -50.730698
 C         -55.178322     -147.149689      -50.218109
 C         -54.398987     -148.021606      -51.244381
 H         -53.817261     -150.565613      -48.770523
 H         -52.719177     -149.340607      -49.349365
 H         -55.180737     -146.730286      -48.204556
 H         -53.539284     -146.940018      -48.852188
 H         -55.357819     -149.967422      -50.710670
 H         -53.722282     -149.941803      -51.404060
 H         -55.159519     -146.009506      -50.583092
 H         -56.180996     -147.433029      -50.102730
 H         -54.916260     -147.867630      -52.152874
 H         -53.445190     -147.571014      -51.197887
