20
 generated by VMD
 C         -61.907097     -172.371811      -54.933243
 N         -60.938072     -172.951035      -55.247108
 H         -61.922371     -170.785385      -57.208141
 H         -62.736061     -171.683411      -54.702015
 C         -62.657413     -170.225922      -57.850739
 C         -62.445923     -168.718857      -57.887589
 C         -64.093918     -170.706024      -57.938946
 C         -63.585815     -167.902542      -58.599171
 C         -65.072937     -169.820068      -58.617081
 C         -64.921082     -168.357086      -58.253784
 H         -61.461437     -168.326157      -58.465607
 H         -62.314312     -168.389236      -56.932632
 H         -64.261765     -171.674210      -58.511436
 H         -64.556480     -170.958969      -56.929077
 H         -63.416042     -168.105835      -59.611553
 H         -63.325855     -166.866043      -58.428646
 H         -66.102020     -170.071625      -58.444641
 H         -64.909325     -169.888321      -59.648842
 H         -65.837112     -167.984467      -58.851482
 H         -65.140312     -168.168137      -57.203648
