20
 generated by VMD
 C         -58.413937     -160.039886      -57.008484
 N         -58.615459     -159.865585      -58.183075
 H         -58.706650     -163.060944      -54.870514
 H         -58.181099     -160.168320      -55.954674
 C         -59.539608     -163.038193      -54.192116
 C         -59.356163     -163.108063      -52.628983
 C         -60.996532     -162.993301      -54.714668
 C         -60.257816     -161.995972      -52.022213
 C         -62.019382     -162.213089      -53.899597
 C         -61.818584     -162.246262      -52.387787
 H         -58.304020     -162.970108      -52.393917
 H         -59.711029     -164.022247      -52.354694
 H         -60.987736     -162.545731      -55.749935
 H         -61.353035     -164.006241      -55.008224
 H         -59.958141     -161.085663      -52.372593
 H         -60.069992     -161.985657      -50.897091
 H         -62.967148     -162.774292      -54.089733
 H         -62.140068     -161.076767      -54.282665
 H         -62.522350     -161.624741      -51.790337
 H         -61.905720     -163.243576      -52.146271
