20
 generated by VMD
 C         -41.153996     -103.000679      -35.689434
 N         -41.258682     -104.141457      -35.468685
 H         -39.276428     -104.273109      -33.448719
 H         -41.118778     -101.925903      -35.872707
 C         -38.660244     -105.065422      -32.963280
 C         -37.245747     -104.776062      -32.889629
 C         -39.110657     -106.463516      -32.767506
 C         -36.673462     -105.263512      -31.577591
 C         -38.731777     -106.799225      -31.284088
 C         -37.146587     -106.611221      -31.084438
 H         -37.107712     -103.738777      -33.004402
 H         -36.863899     -105.200264      -33.818195
 H         -40.220200     -106.431747      -32.946819
 H         -38.653328     -107.119682      -33.453625
 H         -36.791279     -104.600143      -30.723904
 H         -35.649860     -105.370300      -31.939335
 H         -39.086643     -107.764946      -31.117128
 H         -39.175201     -106.126266      -30.533382
 H         -36.998955     -106.815010      -30.067566
 H         -36.557972     -107.372330      -31.681566
