20
 generated by VMD
 C         -11.068231      -33.534348       -9.405183
 N         -10.640870      -32.772964       -8.726891
 H         -12.216409      -35.876282       -7.900766
 H         -12.380089      -35.250584       -6.258738
 C         -12.521299      -36.127361       -6.901067
 C         -11.693454      -37.314503       -6.399247
 C         -14.039934      -36.397270       -7.164943
 C         -12.391741      -37.917290       -5.227170
 C         -14.669639      -37.206726       -6.003300
 C         -13.797149      -38.383823       -5.557057
 H         -10.704123      -36.961807       -6.096228
 H         -11.560391      -38.003624       -7.254128
 H         -14.566418      -35.468330       -7.189031
 H         -14.308413      -36.827835       -8.173881
 H         -12.353005      -37.146290       -4.435073
 H         -11.784998      -38.849796       -4.894144
 H         -15.665902      -37.475922       -6.214691
 H         -14.804281      -36.509296       -5.144905
 H         -14.280620      -38.884075       -4.724139
 H         -13.695479      -39.201847       -6.273304
