20
 generated by VMD
 C         -47.961838     -134.492264      -47.153366
 N         -48.003723     -133.917465      -48.123882
 H         -49.855640     -134.343582      -44.388390
 H         -47.897316     -134.942413      -46.199421
 C         -50.345428     -135.190750      -44.040951
 C         -50.719147     -136.434296      -44.962219
 C         -51.149178     -135.041061      -42.842033
 C         -50.852455     -137.685226      -44.084023
 C         -51.260704     -136.345764      -42.012409
 C         -51.783627     -137.486954      -42.939846
 H         -49.936440     -136.524063      -45.687912
 H         -51.655708     -136.133896      -45.534519
 H         -50.733639     -134.195557      -42.216824
 H         -52.149231     -134.732529      -43.169395
 H         -49.908249     -137.923782      -43.594952
 H         -51.018700     -138.489044      -44.794407
 H         -52.020493     -136.325211      -41.255489
 H         -50.269268     -136.629837      -41.549561
 H         -51.663532     -138.381836      -42.314713
 H         -52.680035     -137.169418      -43.309837
