20
 generated by VMD
 C         -68.876884     -193.626770      -66.603897
 N         -67.755745     -193.625641      -66.205986
 H         -69.927101     -190.598099      -65.630066
 H         -69.717453     -193.625381      -67.233749
 C         -70.999283     -190.778778      -65.554932
 C         -71.990242     -190.508667      -66.585991
 C         -71.504990     -191.195694      -64.221107
 C         -73.248291     -191.535477      -66.609497
 C         -72.956253     -191.107819      -64.049927
 C         -73.740143     -191.862137      -65.159882
 H         -71.570610     -190.403275      -67.607246
 H         -72.474419     -189.486832      -66.404160
 H         -71.241463     -192.305664      -64.034370
 H         -70.974335     -190.746658      -63.372391
 H         -72.861588     -192.472473      -67.009361
 H         -74.092140     -191.090637      -67.150696
 H         -73.331886     -190.072922      -64.139099
 H         -73.286354     -191.449692      -63.028297
 H         -73.665932     -192.954544      -64.905571
 H         -74.897293     -191.806519      -64.924973
