20
 generated by VMD
 C         -79.406212     -206.030640      -74.657295
 N         -79.342926     -206.640701      -73.644295
 H         -78.715523     -206.357483      -70.745453
 H         -79.184753     -205.357239      -75.475304
 C         -77.693924     -206.495041      -70.526482
 C         -76.707169     -205.738571      -71.296738
 C         -77.257294     -207.728867      -69.829781
 C         -75.283981     -205.533798      -70.657417
 C         -75.891144     -207.790390      -69.217972
 C         -74.918549     -206.916351      -70.063087
 H         -76.876854     -204.714127      -71.374870
 H         -76.758118     -206.146408      -72.304688
 H         -77.979073     -207.944122      -68.972656
 H         -77.375114     -208.609039      -70.495071
 H         -75.407135     -204.826630      -69.827087
 H         -74.476181     -205.032333      -71.176125
 H         -75.538406     -208.811493      -69.073799
 H         -75.965446     -207.295807      -68.256149
 H         -73.968445     -206.713760      -69.575417
 H         -74.593582     -207.576660      -70.910583
