20
 generated by VMD
 C          -2.346915       -8.664219       -0.787255
 N          -1.609702       -8.294099       -0.030059
 H          -2.893879       -9.529541        2.965716
 H          -1.783543      -10.828792        3.352108
 C          -2.874389      -10.653857        3.197446
 C          -3.496039      -11.487159        2.132219
 C          -3.680297      -10.852863        4.523353
 C          -3.338366      -12.976124        2.496655
 C          -3.597749      -12.290264        5.021081
 C          -3.975477      -13.322649        3.888173
 H          -2.970247      -11.339992        1.153947
 H          -4.555326      -11.268692        1.930175
 H          -3.130357      -10.264650        5.291536
 H          -4.722689      -10.432295        4.487468
 H          -2.268752      -13.265809        2.575611
 H          -3.811215      -13.656738        1.735051
 H          -4.196727      -12.515865        5.881086
 H          -2.558942      -12.465668        5.237182
 H          -3.811560      -14.356956        4.164720
 H          -5.063793      -13.253719        3.863175
