20
 generated by VMD
 C         -31.005045      -74.832512      -22.572685
 N         -31.210144      -75.654167      -21.722408
 H         -28.539307      -77.527458      -20.968767
 H         -30.746538      -74.380623      -23.466906
 C         -27.751690      -76.925461      -21.380566
 C         -26.691235      -77.717896      -22.099619
 C         -27.286303      -75.695717      -20.599260
 C         -25.759279      -76.734604      -23.003359
 C         -26.494587      -74.746544      -21.550112
 C         -25.291107      -75.567627      -22.131481
 H         -27.359095      -78.469940      -22.731997
 H         -26.041128      -78.412750      -21.387527
 H         -28.299271      -75.248192      -20.255491
 H         -26.672043      -75.975037      -19.753077
 H         -26.365665      -76.330750      -23.843987
 H         -24.914585      -77.313286      -23.406128
 H         -26.144094      -73.872803      -20.956589
 H         -27.243288      -74.358864      -22.312443
 H         -24.690701      -74.805130      -22.631674
 H         -24.482582      -75.941414      -21.367817
