20
 generated by VMD
 C         -27.925119      -86.602272      -26.870852
 N         -28.010326      -85.578239      -26.372210
 H         -30.993801      -85.849144      -25.415165
 H         -27.726904      -87.591934      -27.244455
 C         -31.884031      -86.443283      -25.594000
 C         -32.725563      -86.861244      -24.487810
 C         -32.026962      -87.093109      -26.915289
 C         -34.094376      -87.267426      -24.781969
 C         -33.452957      -87.435104      -27.235739
 C         -34.069260      -88.267487      -26.033003
 H         -32.857071      -86.086273      -23.646723
 H         -32.198017      -87.717331      -24.054081
 H         -31.534538      -86.430962      -27.628901
 H         -31.351051      -87.936470      -26.850689
 H         -34.731720      -86.331589      -24.985571
 H         -34.377323      -87.956604      -23.941271
 H         -33.490990      -88.085190      -28.072886
 H         -34.086494      -86.467102      -27.385202
 H         -35.089897      -88.726334      -26.017962
 H         -33.402988      -89.132828      -25.889734
