20
 generated by VMD
 C         -49.557312     -127.711220      -40.028305
 N         -50.501186     -127.650467      -40.707951
 H         -47.572601     -127.344307      -41.989803
 H         -48.524754     -127.757317      -39.651936
 C         -46.777687     -126.746063      -41.444878
 C         -45.819809     -127.282455      -40.463089
 C         -46.827297     -125.209984      -41.761726
 C         -44.458138     -126.582291      -40.494843
 C         -45.384418     -124.565681      -41.747715
 C         -44.464344     -125.069962      -40.561451
 H         -45.726025     -128.374359      -40.789116
 H         -46.175220     -127.289391      -39.462296
 H         -47.167019     -125.182098      -42.789963
 H         -47.470383     -124.700645      -40.866329
 H         -43.858627     -126.981323      -41.333042
 H         -43.939144     -126.769394      -39.564735
 H         -45.592133     -123.542923      -41.821999
 H         -44.828526     -124.818390      -42.630825
 H         -43.437637     -124.664276      -40.750431
 H         -44.796227     -124.616318      -39.546108
