20
 generated by VMD
 C         -19.961975      -57.381268      -16.833012
 N         -19.186863      -57.774899      -17.632143
 H         -22.629904      -59.591934      -17.119621
 H         -20.709557      -57.149662      -16.019424
 C         -22.581652      -60.446552      -16.481668
 C         -23.866785      -61.206470      -16.433517
 C         -21.299662      -60.793777      -15.857269
 C         -23.847197      -62.464787      -15.627899
 C         -21.303299      -62.257736      -15.297925
 C         -22.635525      -62.653290      -14.702313
 H         -24.190590      -61.452274      -17.502575
 H         -24.674595      -60.536449      -16.027386
 H         -20.528728      -60.771427      -16.668343
 H         -21.125631      -59.988102      -15.129943
 H         -23.902657      -63.368877      -16.302647
 H         -24.771557      -62.400772      -14.954703
 H         -20.447218      -62.532455      -14.576252
 H         -21.004108      -62.927505      -16.141422
 H         -22.747599      -63.760834      -14.479488
 H         -22.798737      -62.129662      -13.754660
