20
 generated by VMD
 C         -12.435055      -28.260145       -5.422328
 N         -13.195330      -28.184261       -6.235023
 H         -11.787533      -31.776089       -4.376422
 H         -11.198522      -30.249817       -5.236373
 C         -10.948930      -31.092066       -4.533674
 C          -9.870746      -31.936581       -5.169839
 C         -10.576140      -30.513540       -3.245495
 C          -8.592095      -31.042187       -5.231703
 C          -9.292344      -29.749617       -3.263022
 C          -8.191465      -30.677721       -3.790597
 H         -10.221116      -32.212975       -6.227705
 H          -9.567658      -32.805126       -4.641304
 H         -11.320044      -29.836744       -2.925407
 H         -10.520369      -31.315636       -2.515369
 H          -8.822707      -30.140127       -5.780197
 H          -7.749450      -31.549749       -5.714721
 H          -8.989566      -29.488125       -2.256215
 H          -9.418345      -28.798773       -3.813536
 H          -7.305300      -30.053274       -3.885870
 H          -8.022037      -31.657541       -3.215700
