20
 generated by VMD
 C         -58.871445     -158.933273      -57.975155
 N         -58.519558     -160.001038      -57.576439
 H         -58.739384     -161.178146      -54.737587
 H         -59.154697     -157.918777      -58.286213
 C         -59.395378     -161.546967      -53.967407
 C         -58.853210     -161.867065      -52.669567
 C         -60.743469     -161.957367      -54.357510
 C         -59.817314     -161.614761      -51.545307
 C         -61.709576     -161.949890      -53.141087
 C         -61.106178     -162.387466      -51.822781
 H         -58.003246     -161.248489      -52.531380
 H         -58.565250     -162.935287      -52.714214
 H         -61.162769     -161.135590      -55.048176
 H         -60.768044     -162.868912      -54.865444
 H         -60.105526     -160.400772      -51.469643
 H         -59.554447     -161.756287      -50.520260
 H         -62.615948     -162.453552      -53.364044
 H         -61.947239     -160.904984      -53.134602
 H         -61.802845     -162.049316      -51.066105
 H         -61.016106     -163.409821      -51.602829
