20
 generated by VMD
 C         -76.983521     -203.501541      -66.809959
 N         -77.781487     -204.125931      -66.194977
 H         -75.410973     -200.603943      -68.253792
 H         -76.230095     -202.892319      -67.209297
 C         -74.797066     -199.992950      -68.917458
 C         -74.827095     -198.522919      -68.674179
 C         -73.744392     -200.717392      -69.789566
 C         -73.441833     -197.953217      -69.007111
 C         -72.864487     -199.806427      -70.730560
 C         -73.042953     -198.235809      -70.454369
 H         -75.204185     -198.199509      -67.785240
 H         -75.517433     -198.226334      -69.464890
 H         -72.944588     -201.204468      -69.179230
 H         -74.343018     -201.426407      -70.404274
 H         -72.681152     -198.247971      -68.261742
 H         -73.497810     -196.888947      -69.033295
 H         -73.039513     -200.050247      -71.751411
 H         -71.887199     -200.106949      -70.596321
 H         -72.135712     -197.682755      -70.585793
 H         -73.928162     -197.776428      -71.068466
