20
 generated by VMD
 C         -30.537895      -75.775124      -22.499401
 N         -31.311769      -74.882431      -22.388685
 H         -28.676086      -78.229164      -21.292850
 H         -29.707188      -76.292587      -23.018398
 C         -27.935373      -77.517372      -21.597525
 C         -26.820883      -77.999847      -22.475447
 C         -27.710394      -76.357231      -20.702242
 C         -25.912239      -76.875877      -22.982832
 C         -26.844337      -75.269951      -21.422020
 C         -25.451630      -75.831306      -21.999216
 H         -27.247787      -78.569481      -23.316122
 H         -26.063211      -78.749382      -22.031057
 H         -28.680296      -76.061501      -20.329794
 H         -27.109520      -76.838852      -19.839525
 H         -26.310556      -76.534256      -23.929138
 H         -24.968235      -77.311684      -23.290207
 H         -26.631680      -74.486717      -20.661268
 H         -27.520332      -74.899384      -22.183882
 H         -24.911375      -74.959869      -22.443840
 H         -24.941383      -76.356293      -21.210018
