20
 generated by VMD
 C         -27.441427      -86.583046      -26.401213
 N         -28.496527      -86.255592      -26.855886
 H         -31.010038      -86.235390      -25.328657
 H         -26.481754      -87.000244      -26.141546
 C         -31.984507      -86.656914      -25.585703
 C         -32.761318      -87.320755      -24.513092
 C         -32.014965      -87.292976      -26.920662
 C         -34.272728      -87.404549      -24.997608
 C         -33.531227      -87.511742      -27.357880
 C         -34.349709      -88.259933      -26.254694
 H         -32.763878      -86.943680      -23.500778
 H         -32.326408      -88.430626      -24.372616
 H         -31.476351      -86.790970      -27.704821
 H         -31.601225      -88.292053      -26.818972
 H         -34.570541      -86.385040      -25.072554
 H         -34.869720      -87.730934      -24.235008
 H         -33.641651      -88.098839      -28.360142
 H         -33.950558      -86.518364      -27.527458
 H         -35.400574      -88.331718      -26.607103
 H         -33.868301      -89.299286      -26.389723
