20
 generated by VMD
 C         -70.254189     -183.039444      -64.136841
 N         -70.099899     -183.407608      -65.262115
 H         -68.198799     -180.368973      -62.658791
 H         -70.291893     -182.716904      -63.132961
 C         -67.685837     -180.582748      -61.681915
 C         -67.837471     -181.990540      -61.235855
 C         -66.909714     -179.594498      -60.977783
 C         -66.488876     -182.455841      -60.864212
 C         -65.669510     -180.126297      -60.330517
 C         -65.855057     -181.571365      -59.879814
 H         -68.339104     -182.564651      -62.028797
 H         -68.484924     -182.053314      -60.446133
 H         -66.540688     -178.719894      -61.641537
 H         -67.475983     -179.038742      -60.283382
 H         -65.773979     -182.689148      -61.731384
 H         -66.655624     -183.494812      -60.446732
 H         -65.236343     -179.371277      -59.620964
 H         -64.881424     -180.147614      -61.118679
 H         -64.809090     -181.895233      -59.515789
 H         -66.505676     -181.554657      -59.038147
