20
 generated by VMD
 C         -12.668703      -30.211763       -8.188385
 N         -13.207574      -30.730341       -7.361521
 H         -11.176574      -30.374977       -5.241198
 H         -10.634688      -30.965975       -3.686964
 C         -10.829703      -31.367458       -4.679084
 C          -9.542334      -31.895041       -5.234019
 C         -11.944505      -32.407707       -4.751093
 C          -9.149477      -33.177235       -4.515338
 C         -11.596369      -33.744072       -4.011419
 C         -10.245631      -34.176273       -4.590525
 H          -8.714926      -31.256149       -5.110075
 H          -9.619380      -32.219418       -6.319327
 H         -12.842608      -32.009422       -4.274881
 H         -12.199485      -32.594318       -5.794621
 H          -8.890149      -32.976273       -3.497523
 H          -8.285382      -33.544277       -5.010729
 H         -12.443139      -34.460030       -4.191058
 H         -11.486444      -33.530056       -2.982588
 H          -9.861981      -35.024269       -3.956610
 H         -10.354799      -34.642159       -5.567975
