20
 generated by VMD
 C         -41.883373     -101.954994      -33.718327
 N         -40.761589     -101.888222      -34.023399
 H         -39.293755     -103.851151      -32.512070
 H         -42.999737     -102.004333      -33.476326
 C         -38.175369     -103.789978      -32.295139
 C         -37.068535     -103.460258      -33.142334
 C         -37.899460     -104.443848      -30.852543
 C         -35.797604     -103.052818      -32.383545
 C         -36.816463     -103.693687      -30.163244
 C         -35.566223     -103.834602      -31.101425
 H         -37.464634     -102.667763      -33.816170
 H         -36.876354     -104.396011      -33.757690
 H         -38.848080     -104.589607      -30.450502
 H         -37.548977     -105.531898      -31.085415
 H         -35.888706     -102.069817      -31.977577
 H         -34.888115     -103.070984      -33.002781
 H         -36.592991     -104.114067      -29.102694
 H         -37.029568     -102.656151      -30.019947
 H         -34.724579     -103.525803      -30.411472
 H         -35.356586     -104.861366      -31.341639
