20
 generated by VMD
 C         -67.466736     -192.481644      -67.075882
 N         -68.544128     -192.742004      -66.784615
 H         -69.796219     -190.265320      -65.108078
 H         -66.360535     -192.252457      -67.128525
 C         -70.913994     -190.202377      -65.119431
 C         -71.662315     -190.813629      -66.211609
 C         -71.602821     -189.671265      -63.864014
 C         -72.627159     -191.904175      -65.673500
 C         -73.104095     -189.955948      -64.025002
 C         -73.370926     -191.461884      -64.417038
 H         -70.902794     -191.160172      -67.006355
 H         -72.355698     -189.979034      -66.594551
 H         -71.247185     -190.297485      -62.980064
 H         -71.259995     -188.635269      -63.786991
 H         -72.008736     -192.816315      -65.505959
 H         -73.361992     -192.378357      -66.392677
 H         -73.465736     -189.213516      -64.756401
 H         -73.611961     -189.813492      -63.036560
 H         -73.238586     -192.001205      -63.411274
 H         -74.357750     -191.591141      -64.579697
