20
 generated by VMD
 C         -79.030487     -206.652390      -75.438965
 N         -79.495346     -207.098907      -76.381676
 H         -78.418678     -209.838211      -73.201370
 H         -78.689285     -206.323349      -74.495430
 C         -77.972321     -209.900604      -72.210197
 C         -76.814308     -208.998978      -72.084503
 C         -78.202583     -210.904816      -71.180656
 C         -76.732071     -208.405930      -70.550827
 C         -78.210533     -210.305969      -69.836418
 C         -77.011009     -209.387314      -69.473633
 H         -76.909424     -208.192703      -72.822517
 H         -75.963341     -209.606827      -72.347824
 H         -79.270157     -211.252121      -71.273277
 H         -77.556976     -211.793900      -71.341499
 H         -77.487335     -207.606171      -70.604843
 H         -75.810593     -207.842743      -70.380142
 H         -78.451012     -210.944351      -69.012894
 H         -79.086456     -209.580002      -69.890335
 H         -76.948235     -208.844528      -68.530540
 H         -76.172409     -210.123749      -69.474876
