20
 generated by VMD
 C         -50.717621     -129.577896      -45.545769
 N         -51.293320     -130.546814      -45.593681
 H         -48.200806     -130.738602      -44.043571
 H         -50.100372     -128.767639      -45.919830
 C         -48.211826     -130.874237      -42.957367
 C         -48.356094     -132.227203      -42.181015
 C         -47.861092     -129.693985      -42.053406
 C         -47.120312     -132.442200      -41.242985
 C         -46.747345     -129.981262      -41.088966
 C         -46.935379     -131.232147      -40.332542
 H         -48.418941     -133.066711      -42.776573
 H         -49.363636     -132.038010      -41.631207
 H         -47.762154     -128.733368      -42.628418
 H         -48.722889     -129.514420      -41.505043
 H         -46.184753     -132.631577      -41.778683
 H         -47.367970     -133.367630      -40.675159
 H         -46.667053     -129.151581      -40.407501
 H         -45.746651     -129.937195      -41.612213
 H         -46.063267     -131.430420      -39.638313
 H         -47.935394     -131.062714      -39.785690
