20
 generated by VMD
 C         -60.198612     -170.852249      -55.241913
 N         -59.252693     -171.536957      -55.169060
 H         -63.527576     -170.563065      -57.117352
 H         -61.083935     -170.280090      -55.392090
 C         -63.448154     -169.485901      -56.927959
 C         -62.393188     -168.651276      -57.515553
 C         -64.689903     -168.952835      -56.511395
 C         -62.966431     -168.014923      -58.763447
 C         -65.337578     -168.250961      -57.766338
 C         -64.279381     -167.243256      -58.323120
 H         -61.466171     -169.255280      -57.795658
 H         -61.998707     -167.791428      -56.876526
 H         -65.325371     -169.664490      -56.135906
 H         -64.583961     -168.143127      -55.816616
 H         -63.207279     -168.750183      -59.578449
 H         -62.196430     -167.305954      -59.065262
 H         -66.315392     -167.694595      -57.503475
 H         -65.542885     -169.058731      -58.514534
 H         -64.630165     -166.709732      -59.230255
 H         -64.236481     -166.477020      -57.524120
