20
 generated by VMD
 C         -28.395681      -81.327370      -27.617125
 N         -29.471794      -80.954895      -27.448130
 H         -28.993290      -82.808914      -24.537378
 H         -27.334908      -81.636612      -27.991922
 C         -29.857582      -83.433937      -24.238495
 C         -30.044954      -83.966270      -22.756716
 C         -30.594269      -84.407532      -25.256741
 C         -31.487389      -84.127815      -22.449301
 C         -31.988178      -84.766403      -24.848436
 C         -32.082012      -85.170586      -23.447382
 H         -29.646986      -83.151192      -22.047955
 H         -29.498281      -84.918678      -22.604633
 H         -30.816481      -83.949211      -26.272688
 H         -30.004303      -85.338142      -25.288774
 H         -32.184956      -83.197182      -22.614174
 H         -31.627119      -84.336708      -21.444477
 H         -32.453564      -85.474838      -25.529001
 H         -32.636501      -83.739716      -24.951086
 H         -33.138023      -85.262558      -23.059725
 H         -31.576561      -86.092682      -23.296566
