20
 generated by VMD
 C         -22.962841      -53.004929      -12.546901
 N         -22.785837      -52.580570      -13.641209
 H         -20.422960      -54.586304      -14.099657
 H         -23.086992      -53.662598      -11.787551
 C         -19.414825      -54.275593      -13.954844
 C         -18.927059      -52.877247      -14.128599
 C         -18.505089      -55.513378      -13.587134
 C         -17.652979      -52.601051      -13.268405
 C         -17.145855      -55.012547      -13.020421
 C         -16.714323      -53.701958      -13.612229
 H         -19.686932      -52.150105      -13.915381
 H         -18.672203      -52.828751      -15.126006
 H         -19.001637      -56.184521      -12.906616
 H         -18.444298      -56.128937      -14.516723
 H         -17.864277      -52.610973      -12.196350
 H         -17.266310      -51.615925      -13.511358
 H         -16.333599      -55.718922      -13.174561
 H         -17.232449      -54.893978      -11.914294
 H         -15.709152      -53.428078      -13.299962
 H         -16.690111      -53.755070      -14.732375
