20
 generated by VMD
 C         -22.563694      -55.521374      -16.508410
 N         -23.103535      -54.562595      -16.477182
 H         -19.672489      -55.522305      -15.356477
 H         -22.174332      -56.607517      -16.241943
 C         -19.698063      -56.508053      -14.913687
 C         -20.720251      -56.682495      -13.727848
 C         -18.656315      -57.556702      -15.291526
 C         -20.985861      -58.177998      -13.423583
 C         -18.950714      -58.985237      -14.707064
 C         -19.745026      -59.095146      -13.341047
 H         -21.699017      -56.096977      -13.829942
 H         -20.144629      -56.308807      -12.823439
 H         -18.695242      -57.560310      -16.447927
 H         -17.760298      -57.133118      -14.866649
 H         -21.744844      -58.576340      -14.177965
 H         -21.421986      -58.301937      -12.440516
 H         -17.934526      -59.431976      -14.524112
 H         -19.397602      -59.642807      -15.430563
 H         -20.141268      -60.117107      -13.164414
 H         -19.142971      -58.813408      -12.515199
