20
 generated by VMD
 C         -41.650581     -120.202286      -34.296383
 N         -42.243370     -121.237106      -34.363461
 H         -43.437687     -119.339073      -37.283390
 H         -41.340679     -119.227715      -34.110439
 C         -43.965313     -119.070984      -38.205639
 C         -43.073433     -118.752708      -39.445084
 C         -45.301571     -118.407982      -38.020550
 C         -43.927841     -118.876312      -40.737392
 C         -46.085804     -118.435631      -39.436142
 C         -45.197132     -117.999344      -40.560753
 H         -42.273102     -119.477043      -39.602962
 H         -42.727825     -117.768608      -39.506577
 H         -45.776566     -119.042999      -37.289139
 H         -45.284283     -117.395416      -37.730511
 H         -44.251865     -119.953743      -40.923595
 H         -43.327171     -118.513474      -41.622185
 H         -46.886761     -117.605309      -39.295326
 H         -46.567921     -119.343956      -39.705894
 H         -45.776260     -118.101601      -41.486633
 H         -44.963795     -116.956627      -40.256023
