20
 generated by VMD
 C         -59.579136     -169.367310      -55.744049
 N         -59.778477     -168.536865      -54.892006
 H         -62.985401     -170.221939      -56.395416
 H         -59.550697     -170.101974      -56.548325
 C         -63.132912     -169.168732      -56.636974
 C         -62.791733     -168.878906      -58.041321
 C         -63.305981     -168.094299      -55.639511
 C         -63.533394     -167.685547      -58.553177
 C         -64.091293     -166.958160      -56.214111
 C         -63.503757     -166.451782      -57.599075
 H         -63.042171     -169.677551      -58.798782
 H         -61.757202     -168.651062      -58.054852
 H         -63.780521     -168.639236      -54.833664
 H         -62.301533     -167.822937      -55.245052
 H         -64.588638     -167.982971      -58.852932
 H         -63.161278     -167.341415      -59.551292
 H         -64.020683     -166.230316      -55.485737
 H         -65.071922     -167.209717      -56.429867
 H         -64.269157     -165.722244      -58.075268
 H         -62.549152     -165.863571      -57.456123
