20
 generated by VMD
 C          -7.021606      -23.282537        2.977651
 N          -6.249268      -22.616508        2.559119
 H          -6.833642      -21.610903       -0.169987
 H          -8.255841      -21.942471       -0.904973
 C          -7.296590      -21.537664       -1.124952
 C          -6.498419      -22.385035       -2.160501
 C          -7.355621      -20.043892       -1.581169
 C          -7.078501      -22.157763       -3.607254
 C          -7.939068      -19.853186       -2.995662
 C          -7.109027      -20.667547       -4.007726
 H          -6.492363      -23.486242       -1.906396
 H          -5.417712      -22.171774       -2.202092
 H          -8.088846      -19.463123       -0.909316
 H          -6.320997      -19.643522       -1.527123
 H          -8.105937      -22.529608       -3.642848
 H          -6.391036      -22.676521       -4.279408
 H          -7.746914      -18.818508       -3.291131
 H          -8.992295      -20.105730       -2.900192
 H          -7.629558      -20.684351       -4.950866
 H          -6.168282      -20.190548       -4.140172
