20
 generated by VMD
 C         -61.258286     -156.128525      -54.794239
 N         -60.507313     -155.953812      -55.666355
 H         -59.517269     -155.849014      -51.467735
 H         -61.892235     -156.092239      -53.953854
 C         -58.427742     -156.003006      -51.431904
 C         -57.615620     -154.959763      -50.794765
 C         -57.802341     -157.185333      -52.091652
 C         -56.277370     -155.426865      -50.144680
 C         -56.407085     -157.504150      -51.477112
 C         -55.639935     -156.270203      -51.171234
 H         -58.156090     -154.582764      -49.896988
 H         -57.629810     -154.049286      -51.547840
 H         -58.386372     -158.011932      -52.000870
 H         -57.715416     -156.894348      -53.145245
 H         -56.376919     -156.125946      -49.279697
 H         -55.812523     -154.500122      -50.042545
 H         -56.021557     -158.167648      -52.211658
 H         -56.611221     -158.118484      -50.501862
 H         -54.634388     -156.496094      -50.724960
 H         -55.424587     -155.658203      -52.018574
