20
 generated by VMD
 C         -58.393108     -159.080688      -57.760796
 N         -59.319920     -158.469025      -57.727467
 H         -59.424496     -159.730972      -54.428970
 H         -57.525867     -159.687744      -57.750397
 C         -59.498825     -160.586380      -53.768192
 C         -58.540417     -160.779602      -52.673485
 C         -60.681156     -161.440018      -53.894062
 C         -59.206917     -160.916840      -51.339546
 C         -61.278114     -161.784760      -52.585411
 C         -60.264244     -162.059448      -51.420589
 H         -57.823387     -159.938278      -52.706600
 H         -57.923702     -161.601990      -52.746731
 H         -61.414730     -160.769226      -54.502567
 H         -60.459087     -162.326889      -54.536995
 H         -59.893982     -160.016327      -51.152393
 H         -58.545120     -161.146042      -50.584141
 H         -61.914108     -162.712753      -52.717197
 H         -62.024212     -161.021088      -52.208244
 H         -60.982384     -162.032196      -50.526600
 H         -59.842896     -162.993530      -51.749992
