20
 generated by VMD
 C         -50.866158     -129.579407      -45.275192
 N         -50.931263     -129.745926      -44.162003
 H         -49.230106     -128.741470      -41.972408
 H         -50.732422     -129.321350      -46.335945
 C         -48.218277     -129.001297      -41.566784
 C         -47.999077     -130.363037      -41.208889
 C         -47.329453     -127.964371      -41.016006
 C         -46.458420     -130.736786      -41.287704
 C         -45.888458     -128.275497      -41.374210
 C         -45.388992     -129.729111      -40.770809
 H         -48.617844     -131.101044      -41.857628
 H         -48.268028     -130.567490      -40.191071
 H         -47.505466     -127.046295      -41.570633
 H         -47.636951     -127.777115      -39.941944
 H         -46.387920     -130.974777      -42.372784
 H         -46.182957     -131.676941      -40.841785
 H         -45.115746     -127.571350      -40.977009
 H         -45.712612     -128.262161      -42.415607
 H         -44.309830     -129.849548      -41.031677
 H         -45.420273     -129.632156      -39.690315
