20
 generated by VMD
 C         -17.925295      -48.488251       -7.078485
 N         -17.491493      -47.777992       -6.327014
 H         -16.462097      -48.483799      -10.426004
 H         -15.832973      -48.875107      -12.088423
 C         -16.318047      -48.082317      -11.463823
 C         -15.360437      -46.877602      -11.379077
 C         -17.718466      -47.786880      -12.072661
 C         -15.411793      -46.130276      -12.695649
 C         -17.542637      -47.299953      -13.462092
 C         -16.813271      -45.974934      -13.274504
 H         -14.370279      -47.163055      -10.978444
 H         -15.659743      -46.172997      -10.607096
 H         -18.161341      -48.748516      -12.141298
 H         -18.409864      -47.214710      -11.491537
 H         -14.841565      -46.707409      -13.435498
 H         -14.916610      -45.154816      -12.598494
 H         -18.472282      -47.110752      -13.957081
 H         -16.884983      -47.992001      -14.137541
 H         -16.675398      -45.532784      -14.311046
 H         -17.462070      -45.258389      -12.693563
