20
 generated by VMD
 C         -19.499071      -60.844654      -17.529243
 N         -20.083464      -59.867092      -17.741938
 H         -22.468456      -60.256718      -16.200354
 H         -18.690462      -61.693455      -17.443897
 C         -22.982149      -61.236774      -16.267605
 C         -23.292896      -61.759743      -17.606329
 C         -23.654636      -61.868484      -15.040558
 C         -22.929680      -63.286713      -17.558310
 C         -23.190754      -63.308811      -14.970845
 C         -23.375372      -64.062996      -16.305403
 H         -22.821383      -61.332745      -18.493668
 H         -24.290773      -61.657265      -17.812790
 H         -23.244452      -61.394100      -14.076625
 H         -24.731869      -61.761105      -15.128050
 H         -21.813316      -63.184258      -17.516273
 H         -23.173212      -63.816177      -18.548798
 H         -23.786364      -63.828594      -14.211505
 H         -22.140442      -63.390678      -14.750478
 H         -22.617477      -64.863464      -16.300886
 H         -24.376461      -64.416519      -16.355375
