20
 generated by VMD
 C          -2.349722       -9.037818        0.589082
 N          -1.613574       -9.551795       -0.026674
 H          -2.456750      -11.848962        2.257234
 H          -3.320476      -12.221603        3.859684
 C          -3.236386      -12.489018        2.795822
 C          -2.788429      -13.985987        2.670907
 C          -4.529827      -12.309925        2.052138
 C          -3.888101      -14.987758        3.083817
 C          -5.673237      -13.227593        2.637519
 C          -5.238774      -14.635963        2.472480
 H          -1.860375      -14.043380        3.215873
 H          -2.517378      -14.111627        1.587655
 H          -4.929793      -11.297753        2.269350
 H          -4.455542      -12.416129        0.889441
 H          -3.961614      -14.896823        4.219960
 H          -3.549264      -16.004143        2.862868
 H          -6.613558      -13.084537        2.184713
 H          -5.762421      -12.953108        3.671314
 H          -5.994845      -15.374641        2.805359
 H          -5.005087      -14.797343        1.423130
