20
 generated by VMD
 C         -23.412876      -53.202408      -13.118853
 N         -23.229034      -52.636955      -14.110744
 H         -20.573427      -54.919964      -14.290741
 H         -23.494997      -53.842892      -12.108798
 C         -19.413906      -54.758801      -14.058666
 C         -18.916090      -53.347321      -14.029609
 C         -18.620117      -55.958466      -13.978898
 C         -17.875139      -53.150547      -13.016916
 C         -17.181854      -55.698116      -13.435532
 C         -16.760466      -54.163044      -13.337439
 H         -19.722914      -52.646568      -13.935255
 H         -18.509924      -53.104095      -15.004024
 H         -19.140829      -56.635162      -13.200561
 H         -18.574875      -56.539799      -14.896898
 H         -18.302158      -53.369617      -12.039276
 H         -17.420416      -52.138592      -12.958751
 H         -16.433918      -56.270767      -14.103946
 H         -17.044716      -56.084103      -12.441401
 H         -15.976971      -54.089462      -12.592821
 H         -16.201502      -53.840359      -14.213667
