20
 generated by VMD
 C         -40.306286     -101.046379      -32.223728
 N         -41.095776     -100.793396      -31.411592
 H         -37.828899     -103.732956      -32.189255
 H         -39.410004     -101.229836      -32.766407
 C         -37.316189     -102.781593      -31.963247
 C         -36.078495     -102.420242      -32.851166
 C         -37.321793     -102.432686      -30.471924
 C         -35.286591     -101.176071      -32.405941
 C         -36.489082     -101.131767      -30.235712
 C         -35.121223     -101.070457      -30.969250
 H         -36.373650     -102.329674      -33.885052
 H         -35.388508     -103.279877      -32.763668
 H         -38.395432     -102.242790      -30.165661
 H         -36.947620     -103.228462      -29.911213
 H         -35.593559     -100.224350      -32.984497
 H         -34.197735     -101.347794      -32.697365
 H         -36.387802     -101.043892      -29.171064
 H         -37.132839     -100.200890      -30.597105
 H         -34.601650     -100.130165      -30.779099
 H         -34.580498     -101.974510      -30.579512
