20
 generated by VMD
 C         -12.389094      -31.769804       -8.879979
 N         -12.567501      -30.764551       -8.429110
 H         -10.681277      -34.843006       -7.663077
 H         -11.641405      -33.785610       -6.503939
 C         -11.178590      -34.816998       -6.650596
 C         -10.300580      -34.988213       -5.411057
 C         -12.358879      -35.769825       -6.714726
 C         -11.171931      -34.969887       -4.166917
 C         -13.184075      -35.752293       -5.417038
 C         -12.324104      -35.966717       -4.144231
 H          -9.559057      -34.158176       -5.400114
 H          -9.785820      -35.947556       -5.430486
 H         -12.985872      -35.460140       -7.565554
 H         -12.021254      -36.823544       -6.836167
 H         -11.665826      -33.994762       -4.096965
 H         -10.549353      -35.219463       -3.274567
 H         -14.005967      -36.572758       -5.457174
 H         -13.669177      -34.831619       -5.298201
 H         -12.936806      -35.784908       -3.293138
 H         -11.969980      -36.994473       -4.029785
