20
 generated by VMD
 C         -31.021452      -75.769135      -22.645088
 N         -31.046539      -74.810295      -23.331871
 H         -28.598867      -78.686226      -21.442947
 H         -31.240423      -76.321236      -21.829926
 C         -27.720406      -78.002136      -21.532194
 C         -26.859295      -78.218910      -22.669308
 C         -27.557074      -76.949669      -20.451670
 C         -26.287151      -76.906822      -23.127266
 C         -26.907011      -75.705612      -21.107651
 C         -25.733110      -76.023788      -21.954903
 H         -27.365913      -78.755173      -23.393843
 H         -26.146040      -78.990921      -22.406389
 H         -28.464464      -76.684532      -19.970293
 H         -26.824846      -77.339302      -19.760860
 H         -26.974936      -76.346687      -23.800045
 H         -25.387964      -77.020058      -23.753899
 H         -26.602875      -74.913353      -20.283607
 H         -27.665680      -75.167511      -21.702684
 H         -25.146982      -75.126106      -22.333830
 H         -25.041763      -76.596375      -21.431059
