20
 generated by VMD
 C         -20.303551      -56.895618      -16.928205
 N         -20.917891      -56.449272      -16.088264
 H         -22.255428      -59.645218      -17.821505
 H         -19.717472      -57.438118      -17.821255
 C         -22.132170      -60.193592      -16.844261
 C         -22.646133      -59.540371      -15.601130
 C         -21.899050      -61.627941      -16.704432
 C         -21.945444      -59.965523      -14.267794
 C         -20.883430      -61.874176      -15.522932
 C         -21.410879      -61.372784      -14.206140
 H         -23.730196      -59.679745      -15.486398
 H         -22.596600      -58.413261      -15.725679
 H         -22.782116      -62.233326      -16.639860
 H         -21.449814      -61.827477      -17.684685
 H         -22.655664      -59.890057      -13.451845
 H         -21.119854      -59.285709      -14.065100
 H         -19.841158      -61.759750      -15.939651
 H         -20.905756      -62.991749      -15.414973
 H         -22.203932      -62.015667      -13.837393
 H         -20.561365      -61.348991      -13.478831
