20
 generated by VMD
 C         -22.852468      -52.416351      -12.062146
 N         -23.095043      -52.508545      -10.899472
 H         -19.939253      -52.892147      -14.201878
 H         -22.220671      -52.148716      -13.169390
 C         -18.958441      -52.779221      -13.849554
 C         -18.080263      -51.978233      -14.770111
 C         -18.224398      -53.791672      -12.998240
 C         -16.601219      -52.296188      -14.517281
 C         -17.027065      -53.227421      -12.263700
 C         -16.189959      -52.228004      -13.093741
 H         -18.303518      -50.957458      -14.491671
 H         -18.288473      -52.078403      -15.882891
 H         -18.911654      -54.278267      -12.223130
 H         -17.899483      -54.582664      -13.682522
 H         -16.027842      -51.640316      -15.179261
 H         -16.434500      -53.307568      -14.918118
 H         -16.423288      -54.134079      -12.021651
 H         -17.270784      -52.769882      -11.268000
 H         -16.312750      -51.218567      -12.715768
 H         -15.168464      -52.559494      -12.983897
