20
 generated by VMD
 C          -1.503271      -10.945590        1.510645
 N          -1.003978      -11.883724        1.136098
 H          -3.778465      -13.148876        0.111564
 H          -5.374645      -12.774019        0.969008
 C          -4.598348      -13.541897        0.779837
 C          -3.985013      -13.900342        2.172540
 C          -5.158283      -14.781285        0.199720
 C          -5.005334      -14.514071        3.076823
 C          -6.176195      -15.580166        1.092916
 C          -5.696407      -15.712584        2.527177
 H          -3.506009      -12.984802        2.563995
 H          -3.100295      -14.454380        2.029566
 H          -5.743680      -14.526035       -0.750720
 H          -4.331360      -15.531466       -0.103140
 H          -5.704414      -13.766009        3.328395
 H          -4.451061      -14.761585        3.984024
 H          -6.428507      -16.537983        0.607730
 H          -7.108818      -15.031838        1.029585
 H          -6.460507      -16.135052        3.221908
 H          -4.858256      -16.494751        2.438741
