20
 generated by VMD
 C         -59.687553     -152.405518      -51.031113
 N         -60.535484     -153.122330      -50.932854
 H         -56.829723     -151.972610      -48.819218
 H         -58.933266     -151.624969      -51.019653
 C         -56.017887     -151.653992      -49.481621
 C         -54.996456     -152.662766      -49.703762
 C         -55.729145     -150.166840      -49.512844
 C         -54.132652     -152.096115      -50.875797
 C         -55.121365     -149.799347      -50.812469
 C         -53.799931     -150.600662      -51.039993
 H         -55.623211     -153.489258      -50.193920
 H         -54.411846     -153.026001      -48.843266
 H         -56.649452     -149.670303      -49.154949
 H         -55.064354     -149.914551      -48.709347
 H         -54.682114     -152.414001      -51.776665
 H         -53.180988     -152.655457      -50.768124
 H         -55.010971     -148.760010      -50.668610
 H         -55.729710     -149.771179      -51.780354
 H         -53.396976     -150.365280      -51.984093
 H         -53.046886     -150.225128      -50.228004
