20
 generated by VMD
 C         -11.956242      -26.059101       -0.064178
 N         -12.911434      -26.231256       -0.628489
 H         -10.021454      -26.623945       -3.470459
 H          -9.263767      -25.629179       -4.772318
 C          -9.057065      -26.149752       -3.830196
 C          -8.060371      -27.264896       -4.121795
 C          -8.394617      -25.154932       -2.912696
 C          -6.774425      -26.752110       -4.700397
 C          -7.146372      -24.558594       -3.515749
 C          -6.138899      -25.668718       -3.758948
 H          -8.524656      -28.122089       -4.801906
 H          -7.950165      -27.801920       -3.171616
 H          -9.140655      -24.367125       -2.645945
 H          -8.131997      -25.578497       -1.937191
 H          -6.985884      -26.220751       -5.657142
 H          -6.051353      -27.508120       -5.027802
 H          -6.713212      -23.819721       -2.842556
 H          -7.435622      -24.063990       -4.486414
 H          -5.256559      -25.297819       -4.284296
 H          -5.836941      -26.205021       -2.877627
