20
 generated by VMD
 C         -78.761665     -204.338654      -70.594460
 N         -79.866676     -204.411942      -70.358902
 H         -76.724686     -203.331985      -68.505646
 H         -77.720558     -204.166382      -70.788643
 C         -75.752945     -202.983932      -68.954308
 C         -75.572372     -201.724319      -69.625099
 C         -74.427559     -203.742416      -68.873291
 C         -74.764061     -201.772827      -70.834702
 C         -73.098190     -202.902420      -69.183670
 C         -73.276390     -201.910202      -70.267365
 H         -75.194443     -200.852417      -69.039635
 H         -76.572060     -201.360962      -69.878639
 H         -74.224007     -204.154785      -67.838768
 H         -74.423409     -204.566635      -69.710907
 H         -74.833221     -200.829742      -71.478012
 H         -75.056877     -202.619614      -71.484367
 H         -72.327629     -203.537933      -69.426636
 H         -72.949844     -202.442047      -68.219627
 H         -73.015488     -200.887680      -69.871002
 H         -72.617950     -202.228012      -71.065872
