20
 generated by VMD
 C         -20.907934      -52.341274      -11.305928
 N         -21.461740      -52.932991      -10.482888
 H         -19.435270      -49.843777      -13.764045
 H         -20.444878      -51.855083      -12.086739
 C         -18.916845      -50.652325      -13.127269
 C         -18.413809      -51.973747      -13.745307
 C         -17.973461      -50.072525      -12.129590
 C         -17.031782      -51.858955      -14.298775
 C         -16.472736      -50.186012      -12.494938
 C         -16.055986      -51.464958      -13.179988
 H         -19.173199      -52.358707      -14.486210
 H         -18.371090      -52.734787      -12.975875
 H         -18.268244      -49.041714      -12.062909
 H         -18.119883      -50.461319      -11.127879
 H         -17.005970      -51.093681      -15.064809
 H         -16.697681      -52.809891      -14.721830
 H         -15.926775      -50.089207      -11.497567
 H         -16.192694      -49.360390      -13.077781
 H         -14.964693      -51.468441      -13.468129
 H         -16.223427      -52.253250      -12.412961
