20
 generated by VMD
 C         -41.818024     -120.229935      -34.412460
 N         -42.284866     -121.269318      -34.318520
 H         -43.520187     -119.608070      -37.425289
 H         -41.181606     -119.337212      -34.614292
 C         -43.980316     -119.137665      -38.276474
 C         -43.108055     -118.863953      -39.434631
 C         -45.265190     -118.475929      -38.088421
 C         -43.940170     -118.854462      -40.706596
 C         -46.038197     -118.492004      -39.381428
 C         -45.169350     -117.981743      -40.577530
 H         -42.315819     -119.598709      -39.593372
 H         -42.755962     -117.878723      -39.342865
 H         -45.841892     -118.952393      -37.324089
 H         -45.094975     -117.455650      -37.873814
 H         -44.366631     -119.862106      -40.964489
 H         -43.281540     -118.512550      -41.534775
 H         -47.095901     -117.925293      -39.246815
 H         -46.271561     -119.571404      -39.577263
 H         -45.764370     -118.123276      -41.490757
 H         -45.028294     -116.972862      -40.238274
