20
 generated by VMD
 C         -40.587967      -99.981339      -29.525713
 N         -40.100407     -100.178635      -28.505533
 H         -37.258652      -99.742783      -30.504326
 H         -41.117611      -99.720757      -30.385441
 C         -36.369038      -99.225075      -30.819717
 C         -35.967716      -99.269859      -32.226925
 C         -35.437630      -99.048828      -29.708132
 C         -34.839863      -98.347702      -32.447342
 C         -34.242886      -98.082191      -29.965723
 C         -33.636280      -98.160652      -31.374115
 H         -36.858383      -98.933296      -32.804764
 H         -35.712601     -100.295700      -32.537350
 H         -35.995785      -98.841568      -28.768812
 H         -35.121273     -100.056862      -29.636333
 H         -35.233891      -97.346725      -32.612598
 H         -34.157887      -98.637421      -33.273037
 H         -33.462955      -98.115479      -29.163546
 H         -34.582607      -97.058426      -29.790159
 H         -33.061390      -97.203125      -31.569355
 H         -32.908115      -98.992180      -31.454361
