20
 generated by VMD
 C         -59.793526     -152.129257      -50.575184
 N         -59.127048     -152.911896      -50.044670
 H         -56.587646     -151.171051      -48.491127
 H         -60.505142     -151.376877      -50.964317
 C         -55.838531     -150.813278      -49.225983
 C         -54.964096     -151.948257      -49.737461
 C         -55.373688     -149.379456      -49.211784
 C         -54.407883     -151.471054      -50.993935
 C         -54.786526     -149.027985      -50.603119
 C         -53.837353     -150.055176      -51.107288
 H         -55.644066     -152.714890      -50.065212
 H         -54.315609     -152.376480      -49.011391
 H         -56.150734     -148.681732      -48.804806
 H         -54.547958     -149.399979      -48.519382
 H         -55.228863     -151.498291      -51.714432
 H         -53.634979     -152.110931      -51.419010
 H         -54.355484     -147.967621      -50.413441
 H         -55.542587     -148.798920      -51.311024
 H         -53.872719     -149.875381      -52.203106
 H         -52.819992     -149.886703      -50.658024
