20
 generated by VMD
 C         -21.958599      -55.372360      -17.534048
 N         -21.462360      -55.784187      -18.459118
 H         -21.311232      -56.800098      -13.905424
 H         -22.646416      -54.879631      -17.047974
 C         -21.120173      -57.853477      -14.061073
 C         -21.336046      -58.769180      -12.942326
 C         -20.980169      -58.286541      -15.553746
 C         -20.882401      -60.223946      -13.256128
 C         -20.279009      -59.731144      -15.676725
 C         -19.755323      -60.241879      -14.292258
 H         -22.414724      -58.722084      -12.605106
 H         -20.721621      -58.320980      -12.103304
 H         -21.907400      -58.302006      -16.023905
 H         -20.329845      -57.504257      -15.958458
 H         -21.689156      -60.676624      -13.790732
 H         -20.649073      -60.754677      -12.348868
 H         -19.424770      -59.601116      -16.354231
 H         -20.995113      -60.487560      -16.057613
 H         -19.308968      -61.271481      -14.377746
 H         -18.915121      -59.556305      -14.003284
