20
 generated by VMD
 C         -19.804874      -57.538490      -16.884716
 N         -19.212955      -58.019478      -17.792795
 H         -22.640495      -59.799725      -17.348354
 H         -20.283182      -57.022884      -16.135593
 C         -22.740437      -60.472157      -16.450457
 C         -23.979542      -61.236282      -16.280537
 C         -21.429108      -60.947514      -15.790052
 C         -23.597031      -62.750034      -16.226820
 C         -21.485668      -62.291485      -15.000824
 C         -22.896761      -62.817863      -14.877433
 H         -24.599400      -61.079216      -17.107740
 H         -24.359528      -60.965443      -15.296094
 H         -20.620365      -60.664925      -16.458231
 H         -21.344015      -60.223606      -14.969425
 H         -22.982628      -63.029015      -17.047615
 H         -24.495119      -63.344280      -16.118652
 H         -21.026506      -62.166126      -14.022938
 H         -20.836447      -63.066315      -15.428909
 H         -22.768885      -63.829971      -14.547663
 H         -23.440584      -62.282440      -14.094421
