20
 generated by VMD
 C         -70.810730     -181.611649      -64.214851
 N         -70.189766     -182.375183      -63.641224
 H         -68.531288     -181.105759      -61.233959
 H         -71.368546     -180.871368      -64.680916
 C         -67.600182     -180.716248      -60.872841
 C         -66.522591     -181.860016      -60.565521
 C         -67.301994     -179.358307      -60.354248
 C         -65.088661     -181.306198      -60.807011
 C         -65.883217     -178.880249      -60.924541
 C         -64.836601     -179.822800      -60.312992
 H         -66.761444     -182.664062      -61.248989
 H         -66.544991     -182.175095      -59.581593
 H         -68.162605     -178.695206      -60.738327
 H         -67.329041     -179.218781      -59.240376
 H         -64.711044     -181.520126      -61.865688
 H         -64.377991     -181.797592      -60.094124
 H         -65.707504     -177.810776      -60.734802
 H         -65.745544     -178.932877      -62.024136
 H         -63.841148     -179.377945      -60.537796
 H         -64.963730     -179.908356      -59.252121
