20
 generated by VMD
 C         -20.993626      -52.160519      -11.028049
 N         -21.458866      -53.052395      -10.550048
 H         -19.776798      -50.117718      -13.036458
 H         -20.731527      -51.249981      -11.881526
 C         -18.810946      -50.685295      -13.038492
 C         -18.449791      -51.951717      -13.778073
 C         -17.851885      -50.002678      -12.100707
 C         -17.010277      -51.838928      -14.251925
 C         -16.407087      -49.962906      -12.639215
 C         -16.020990      -51.334980      -13.142334
 H         -19.074791      -52.150654      -14.686882
 H         -18.484045      -52.807243      -13.133756
 H         -18.194284      -48.978336      -12.083901
 H         -17.823431      -50.402050      -11.057454
 H         -16.921463      -51.094067      -15.032219
 H         -16.726374      -52.786503      -14.672476
 H         -15.668415      -49.619335      -11.935365
 H         -16.405289      -49.244030      -13.425063
 H         -14.985347      -51.358673      -13.445591
 H         -16.068310      -52.008900      -12.315767
