20
 generated by VMD
 C         -42.089836     -101.612007      -33.326984
 N         -41.057446     -101.691994      -33.872540
 H         -38.838879     -103.535179      -32.739113
 H         -43.057529     -101.152405      -32.924892
 C         -37.966618     -103.696999      -32.142292
 C         -36.784454     -103.361366      -33.147320
 C         -37.605247     -104.148315      -30.762978
 C         -35.601303     -102.823135      -32.421700
 C         -36.648540     -103.215744      -30.102331
 C         -35.383709     -103.319878      -30.984484
 H         -37.158310     -102.648781      -33.839245
 H         -36.540966     -104.297348      -33.697781
 H         -38.561375     -104.143463      -30.188025
 H         -37.177212     -105.135963      -30.948784
 H         -35.543415     -101.732849      -32.380974
 H         -34.644085     -103.161797      -32.855591
 H         -36.417080     -103.444450      -29.004793
 H         -37.116917     -102.207993      -30.109657
 H         -34.629551     -102.673035      -30.508339
 H         -35.017395     -104.301796      -30.890102
