20
 generated by VMD
 C         -78.921379     -209.409882      -77.140427
 N         -79.004303     -209.620560      -76.021217
 H         -77.734573     -210.105942      -73.581810
 H         -78.828941     -209.319702      -78.168243
 C         -78.172264     -210.725647      -72.798279
 C         -77.273323     -211.159348      -71.750458
 C         -79.475929     -211.527023      -72.990723
 C         -78.032425     -211.646423      -70.490547
 C         -79.994247     -212.241486      -71.777611
 C         -79.086082     -212.706589      -70.715157
 H         -76.755875     -210.266342      -71.485840
 H         -76.497147     -211.793686      -72.074959
 H         -80.321983     -210.819656      -73.370216
 H         -79.223351     -212.272186      -73.731224
 H         -78.496559     -210.733902      -70.134071
 H         -77.313049     -212.060364      -69.772156
 H         -80.643242     -213.024582      -71.973045
 H         -80.827248     -211.584961      -71.261780
 H         -79.610153     -213.177826      -69.883957
 H         -78.434471     -213.545456      -71.089081
