20
 generated by VMD
 C         -75.372604     -201.706253      -66.247055
 N         -76.033150     -202.464737      -65.658142
 H         -76.104202     -199.948944      -69.198143
 H         -74.581696     -200.976334      -66.600868
 C         -75.155899     -199.368683      -69.185188
 C         -74.891632     -198.211411      -68.301712
 C         -74.114586     -199.818115      -70.170380
 C         -73.343559     -197.772186      -68.198082
 C         -73.152359     -198.722595      -70.575531
 C         -72.684013     -197.557892      -69.532700
 H         -75.179611     -198.571701      -67.252983
 H         -75.408760     -197.347702      -68.584396
 H         -73.677849     -200.772781      -69.855530
 H         -74.630035     -200.082550      -71.057320
 H         -72.824524     -198.634735      -67.825211
 H         -73.160561     -196.866577      -67.636192
 H         -73.599854     -198.309128      -71.508453
 H         -72.138618     -199.125641      -70.982742
 H         -71.485580     -197.494705      -69.473976
 H         -73.046631     -196.702209      -69.964935
