20
 generated by VMD
 C         -49.987122     -143.526581      -44.478573
 N         -49.234032     -143.520615      -45.418770
 H         -51.981907     -141.338226      -45.693424
 H         -50.603912     -143.358124      -43.612255
 C         -52.753033     -141.578812      -46.410088
 C         -52.195469     -141.577682      -47.763733
 C         -54.162189     -141.112457      -46.184162
 C         -53.098446     -142.221710      -48.761013
 C         -55.095684     -141.873840      -47.152939
 C         -54.487434     -141.758759      -48.604691
 H         -51.236294     -142.090164      -47.695843
 H         -52.060390     -140.502838      -48.002525
 H         -54.405632     -141.453339      -45.165459
 H         -54.246334     -140.077698      -46.381630
 H         -53.325874     -143.400009      -48.684361
 H         -52.563591     -142.026352      -49.740925
 H         -56.162300     -141.407822      -47.207577
 H         -55.184948     -142.945633      -46.762211
 H         -55.218246     -142.180862      -49.387276
 H         -54.514408     -140.597916      -48.793999
