20
 generated by VMD
 C         -50.490940     -145.064255      -45.188828
 N         -50.383015     -145.413086      -44.056236
 H         -52.903805     -143.531708      -46.086437
 H         -50.492626     -144.814316      -46.222950
 C         -53.432716     -143.113068      -46.927212
 C         -52.610985     -143.275406      -48.083679
 C         -54.749161     -142.352646      -46.913071
 C         -53.348167     -143.358459      -49.469715
 C         -55.476521     -142.489151      -48.350506
 C         -54.457962     -142.262451      -49.515423
 H         -51.962708     -144.140640      -47.986637
 H         -51.834343     -142.557053      -48.022457
 H         -55.401043     -142.857346      -46.250885
 H         -54.487545     -141.295822      -46.822857
 H         -53.695354     -144.336380      -49.615936
 H         -52.577091     -143.103531      -50.164661
 H         -56.413857     -141.870605      -48.457012
 H         -55.960239     -143.496841      -48.300713
 H         -54.906925     -142.259567      -50.435192
 H         -54.208626     -141.249466      -49.474701
