20
 generated by VMD
 C         -26.259254      -71.873405      -17.413996
 N         -26.727606      -72.636673      -16.670732
 H         -24.307356      -69.457146      -18.609816
 H         -25.770567      -71.274620      -18.157749
 C         -24.724804      -69.689522      -19.626413
 C         -24.200422      -70.754456      -20.394297
 C         -25.696272      -68.833778      -20.467333
 C         -25.136343      -71.632919      -21.144180
 C         -26.654478      -69.707848      -21.239491
 C         -26.015167      -70.897255      -22.016903
 H         -23.637663      -71.496597      -19.888311
 H         -23.486506      -70.398109      -21.241234
 H         -26.216055      -68.102501      -19.769148
 H         -25.105955      -68.297615      -21.275360
 H         -25.599169      -72.160088      -20.373318
 H         -24.607151      -72.405853      -21.693710
 H         -27.289026      -69.251465      -22.027828
 H         -27.321278      -70.208931      -20.425833
 H         -26.713232      -71.648972      -22.331303
 H         -25.590403      -70.451118      -22.888649
