20
 generated by VMD
 C         -23.312325      -68.603287      -16.626476
 N         -23.184853      -69.411118      -15.783702
 H         -23.985186      -66.220917      -18.961903
 H         -23.625265      -67.909607      -17.411827
 C         -24.440678      -67.118103      -19.272217
 C         -23.856421      -67.680359      -20.465570
 C         -25.975128      -67.051910      -19.134573
 C         -24.505554      -69.030098      -20.711428
 C         -26.552973      -68.450584      -19.126059
 C         -25.996536      -69.087883      -20.426403
 H         -22.676813      -67.671082      -20.433237
 H         -24.153540      -66.982018      -21.218821
 H         -26.247301      -66.627968      -18.206392
 H         -26.331675      -66.703453      -20.099010
 H         -24.005619      -69.789848      -20.170311
 H         -24.323957      -69.193970      -21.728334
 H         -27.620241      -68.326149      -19.240370
 H         -26.203022      -69.023048      -18.279337
 H         -26.217754      -70.150925      -20.687437
 H         -26.462009      -68.573792      -21.344070
