20
 generated by VMD
 C         -58.442310     -160.018478      -57.059345
 N         -58.588585     -159.897415      -58.146343
 H         -58.693089     -162.977936      -54.808250
 H         -58.338425     -160.186554      -56.016228
 C         -59.525288     -162.829330      -54.148212
 C         -59.350601     -162.990692      -52.725014
 C         -60.916370     -162.852249      -54.647930
 C         -60.317581     -162.070190      -52.034000
 C         -62.031399     -162.201340      -53.834988
 C         -61.728867     -162.293365      -52.332771
 H         -58.351547     -162.599976      -52.539253
 H         -59.465637     -163.981354      -52.528000
 H         -60.907738     -162.546158      -55.734013
 H         -61.194618     -163.904419      -54.821651
 H         -60.116001     -161.077759      -52.289536
 H         -59.986343     -162.142380      -50.946068
 H         -63.012299     -162.644318      -54.160591
 H         -62.039139     -161.036224      -53.816189
 H         -62.191242     -161.392426      -51.847118
 H         -62.068993     -163.168793      -51.885723
