20
 generated by VMD
 C         -69.004990     -180.637482      -61.027950
 N         -69.824379     -181.168991      -60.420219
 H         -66.954643     -178.491226      -59.515678
 H         -68.289749     -180.168671      -61.627110
 C         -66.324936     -177.726059      -59.846722
 C         -65.859161     -177.803711      -61.328339
 C         -65.381493     -177.239288      -58.735229
 C         -65.008026     -176.489746      -61.653519
 C         -64.479568     -176.080109      -59.334629
 C         -63.892212     -176.321365      -60.677368
 H         -66.703827     -178.039703      -61.995152
 H         -65.205009     -178.743423      -61.420193
 H         -66.012108     -176.801727      -57.993553
 H         -64.747124     -178.058090      -58.273132
 H         -65.728027     -175.695923      -61.711304
 H         -64.445030     -176.785477      -62.553925
 H         -63.553825     -175.901810      -58.747860
 H         -65.160118     -175.227417      -59.352570
 H         -63.279942     -175.490341      -60.904385
 H         -63.202660     -177.137482      -60.639992
