20
 generated by VMD
 C         -39.652485     -100.436134      -30.754105
 N         -40.529091     -100.197258      -31.461399
 H         -37.312355     -102.578537      -30.678263
 H         -38.804291     -100.398537      -30.036604
 C         -36.642170     -101.670959      -30.942110
 C         -36.704479     -101.140457      -32.269108
 C         -35.473324     -101.443115      -30.152582
 C         -36.412823      -99.726715      -32.123619
 C         -35.146076      -99.910126      -30.014956
 C         -35.017971      -99.462234      -31.423090
 H         -37.669975     -101.273224      -32.735256
 H         -35.943031     -101.460587      -32.985939
 H         -35.576054     -101.802032      -29.152422
 H         -34.676594     -102.129669      -30.548326
 H         -37.174122      -99.322937      -31.414917
 H         -36.405296      -99.095039      -32.992832
 H         -34.214668      -99.829048      -29.354549
 H         -35.942654      -99.401787      -29.427883
 H         -34.881405      -98.399010      -31.438368
 H         -34.099945      -99.843849      -31.866386
