20
 generated by VMD
 C          -1.920835       -9.674030       -0.131609
 N          -2.426785       -8.814224        0.415161
 H          -2.258026      -10.932345        2.647492
 H          -2.237779      -11.976199        3.964528
 C          -2.779240      -11.787930        3.086382
 C          -2.612360      -13.012600        2.159363
 C          -4.233336      -11.410580        3.179639
 C          -3.395276      -14.160353        2.712853
 C          -5.129694      -12.541194        3.699574
 C          -4.826275      -13.851588        2.972905
 H          -1.591152      -13.326682        1.988902
 H          -3.017909      -12.810804        1.139802
 H          -4.250529      -10.589987        3.905185
 H          -4.546402      -11.047589        2.132334
 H          -2.939579      -14.627308        3.606006
 H          -3.375183      -14.971344        2.003725
 H          -6.178285      -12.239799        3.508555
 H          -5.001823      -12.626247        4.831521
 H          -5.351785      -14.625082        3.508408
 H          -5.267791      -13.729057        1.998296
