20
 generated by VMD
 C         -49.818825     -127.749596      -39.068287
 N         -49.553181     -126.671661      -38.720070
 H         -47.057686     -125.728371      -40.374859
 H         -49.760246     -128.758026      -39.500549
 C         -46.220520     -125.183510      -40.718712
 C         -44.911884     -125.785271      -40.531960
 C         -46.471886     -123.822617      -41.111649
 C         -43.667381     -124.917702      -40.857784
 C         -45.207355     -122.969276      -41.518749
 C         -44.032501     -123.455841      -40.720982
 H         -44.891396     -126.748192      -41.009010
 H         -44.757469     -126.014198      -39.431232
 H         -47.115475     -123.758179      -42.021912
 H         -47.007732     -123.305626      -40.397255
 H         -43.387955     -125.133987      -41.898064
 H         -42.819641     -125.254158      -40.245041
 H         -45.305088     -121.912109      -41.273502
 H         -44.944202     -123.034950      -42.561764
 H         -43.092945     -122.923401      -40.880676
 H         -44.261494     -123.189529      -39.679241
