20
 generated by VMD
 C         -70.034660     -184.104645      -65.964302
 N         -69.021248     -183.878098      -66.454803
 H         -69.461143     -184.251953      -63.366600
 H         -70.948883     -184.260895      -65.475739
 C         -68.830597     -183.888168      -62.584442
 C         -69.088814     -184.710663      -61.291473
 C         -67.977333     -182.656052      -62.500900
 C         -67.800072     -184.710297      -60.475498
 C         -66.906189     -182.527893      -61.411518
 C         -67.407478     -183.301712      -60.204342
 H         -69.460831     -185.754425      -61.471203
 H         -69.909828     -184.110809      -60.910625
 H         -67.398476     -182.609589      -63.362926
 H         -68.743233     -181.880707      -62.445961
 H         -67.193466     -185.424530      -61.044861
 H         -68.090584     -185.226517      -59.565247
 H         -66.761635     -181.558594      -61.018803
 H         -65.951363     -182.898071      -61.821697
 H         -66.624252     -183.211716      -59.420837
 H         -68.175613     -182.743118      -59.700512
