20
 generated by VMD
 C         -12.510713      -30.239580       -7.965971
 N         -13.474410      -30.065054       -7.438396
 H         -11.286515      -30.355667       -5.312191
 H         -10.421619      -30.733189       -3.697211
 C         -10.849429      -31.083086       -4.652610
 C          -9.618971      -31.570063       -5.419006
 C         -11.815126      -32.227890       -4.171054
 C          -8.947362      -32.789425       -4.761733
 C         -11.120952      -33.502155       -3.616334
 C          -9.958511      -33.924320       -4.423499
 H          -8.898442      -30.778225       -5.465458
 H          -9.855385      -31.792038       -6.470539
 H         -12.533217      -31.815271       -3.449857
 H         -12.345331      -32.618813       -5.056300
 H          -8.568130      -32.408329       -3.761696
 H          -8.044829      -33.158092       -5.341999
 H         -11.845498      -34.372631       -3.532928
 H         -10.856164      -33.248569       -2.621991
 H          -9.444461      -34.704105       -3.784653
 H         -10.337305      -34.333469       -5.381146
