20
 generated by VMD
 C         -59.279591     -158.269714      -55.995152
 N         -58.932461     -158.587570      -57.099609
 H         -60.662804     -158.046036      -52.449436
 H         -59.700638     -157.917160      -55.045029
 C         -60.025940     -158.710205      -53.021465
 C         -58.478531     -158.646606      -52.722118
 C         -60.606106     -160.157791      -53.282669
 C         -58.099785     -159.636673      -51.527405
 C         -60.030930     -161.088669      -52.170601
 C         -58.489838     -160.984863      -51.961552
 H         -58.164322     -157.697815      -52.306789
 H         -57.814976     -158.918625      -53.578953
 H         -61.669544     -160.315674      -53.368988
 H         -60.251335     -160.492981      -54.243011
 H         -58.496037     -159.432068      -50.558800
 H         -56.955338     -159.540161      -51.386620
 H         -60.363556     -162.048828      -52.472157
 H         -60.370956     -160.960510      -51.134666
 H         -58.116947     -161.852371      -51.312721
 H         -58.147900     -161.358841      -52.992958
