20
 generated by VMD
 C         -28.181019      -82.049133      -26.429815
 N         -28.056154      -82.383850      -27.542141
 H         -30.780369      -83.805931      -26.260704
 H         -28.225586      -81.782074      -25.408609
 C         -31.142565      -84.577187      -25.484324
 C         -30.698210      -84.365807      -24.126991
 C         -31.900187      -85.731201      -25.921749
 C         -31.806818      -84.711143      -23.174341
 C         -32.899158      -86.199692      -24.941767
 C         -32.237949      -86.205490      -23.462416
 H         -30.414278      -83.257591      -24.151268
 H         -29.712599      -84.889175      -23.933392
 H         -32.467293      -85.585968      -26.826885
 H         -31.093679      -86.467651      -26.246536
 H         -32.752361      -84.004547      -23.396145
 H         -31.459223      -84.638527      -22.118755
 H         -33.324215      -87.179749      -25.208456
 H         -33.712021      -85.424522      -24.990215
 H         -33.012192      -86.472458      -22.853422
 H         -31.404373      -86.923843      -23.414408
