20
 generated by VMD
 C         -39.510536     -105.588165      -37.074978
 N         -40.566460     -105.989914      -37.275127
 H         -38.863579     -108.355400      -35.323898
 H         -38.573479     -105.003014      -37.074497
 C         -39.326065     -108.532417      -34.321236
 C         -38.461533     -108.852219      -33.275455
 C         -40.663307     -109.238998      -34.328491
 C         -39.011574     -108.982567      -31.873240
 C         -41.291134     -109.347031      -32.925488
 C         -40.241970     -110.014229      -31.963326
 H         -37.681393     -108.023140      -33.307220
 H         -37.893036     -109.744667      -33.545189
 H         -41.337471     -108.592125      -34.993633
 H         -40.437916     -110.189102      -34.858215
 H         -39.443504     -107.988251      -31.641867
 H         -38.405586     -109.279869      -30.948021
 H         -42.159275     -110.005386      -32.989895
 H         -41.420910     -108.379478      -32.518723
 H         -40.835300     -110.135155      -30.946127
 H         -39.988159     -110.978462      -32.301575
