20
 generated by VMD
 C         -19.103504      -62.850975      -17.116611
 N         -20.217655      -62.729511      -16.877043
 H         -22.956116      -63.513485      -16.744572
 H         -18.235775      -63.056969      -17.575762
 C         -23.543671      -64.357521      -17.210751
 C         -23.986294      -64.116226      -18.652861
 C         -24.427111      -65.154167      -16.243814
 C         -24.593075      -65.321190      -19.308247
 C         -25.076038      -66.371803      -16.926397
 C         -25.626936      -65.972321      -18.317802
 H         -23.332388      -63.546967      -19.325352
 H         -24.859232      -63.457855      -18.520533
 H         -23.746035      -65.554802      -15.388491
 H         -25.210690      -64.348129      -15.890608
 H         -23.854658      -66.074608      -19.625881
 H         -25.099915      -65.126114      -20.253578
 H         -25.876698      -66.850052      -16.361645
 H         -24.384151      -67.179131      -17.143023
 H         -25.865917      -66.928383      -18.700739
 H         -26.547934      -65.400894      -18.207220
