20
 generated by VMD
 C         -70.410027     -197.078629      -66.162781
 N         -69.825027     -196.176208      -65.772858
 H         -72.109070     -194.557571      -64.759178
 H         -70.868347     -197.937454      -66.542465
 C         -72.547897     -194.223373      -65.701714
 C         -72.573967     -192.787277      -66.079597
 C         -73.477821     -195.257568      -66.284958
 C         -73.569450     -192.540695      -67.180984
 C         -73.834808     -194.963699      -67.763695
 C         -73.378197     -193.565475      -68.273170
 H         -71.487320     -192.679214      -66.562225
 H         -72.880791     -192.187378      -65.220024
 H         -73.092323     -196.301636      -66.265205
 H         -74.442947     -195.470612      -65.848900
 H         -73.323341     -191.509506      -67.514648
 H         -74.614182     -192.657089      -66.857628
 H         -74.920357     -195.036880      -67.821404
 H         -73.433601     -195.731659      -68.430489
 H         -72.376160     -193.577530      -68.480606
 H         -73.977097     -193.261444      -69.248337
