20
 generated by VMD
 C         -40.983616     -119.349800      -34.804718
 N         -40.051872     -119.040268      -35.375809
 H         -43.468018     -117.297676      -36.210804
 H         -41.909111     -119.377754      -34.326210
 C         -43.943474     -117.387199      -37.225670
 C         -43.043617     -117.745644      -38.356224
 C         -45.296062     -116.791367      -37.582474
 C         -43.775112     -118.375061      -39.564991
 C         -45.916027     -117.471596      -38.772373
 C         -45.005325     -117.722572      -40.059467
 H         -42.419266     -118.566650      -37.986382
 H         -42.417389     -116.875244      -38.619072
 H         -46.021797     -116.900414      -36.763264
 H         -45.144470     -115.731361      -37.861473
 H         -44.094200     -119.400215      -39.263145
 H         -42.997009     -118.474449      -40.321392
 H         -46.816322     -116.931572      -39.096504
 H         -45.997765     -118.449043      -38.490559
 H         -45.589455     -118.435616      -40.674965
 H         -44.721634     -116.769981      -40.612938
