20
 generated by VMD
 C         -31.191231      -75.599709      -21.384373
 N         -32.292648      -75.434486      -21.560234
 H         -27.914557      -75.626022      -20.058126
 H         -30.137524      -75.719849      -21.803438
 C         -27.112656      -75.458763      -20.762764
 C         -26.648561      -76.565048      -21.587385
 C         -26.260687      -74.277527      -20.470194
 C         -25.739927      -76.090614      -22.810936
 C         -25.432491      -73.815170      -21.734709
 C         -24.730734      -74.988647      -22.486565
 H         -27.491716      -77.232780      -21.828442
 H         -26.112171      -77.349686      -21.124552
 H         -26.879345      -73.454430      -20.153378
 H         -25.434061      -74.359352      -19.698851
 H         -26.461193      -75.720627      -23.595490
 H         -25.241344      -76.984955      -23.305723
 H         -24.709183      -72.982422      -21.581957
 H         -26.101860      -73.369804      -22.508339
 H         -24.462118      -74.532433      -23.472029
 H         -23.907879      -75.511406      -21.964943
