20
 generated by VMD
 C         -68.251144     -179.489090      -58.435020
 N         -67.416580     -179.077209      -57.754433
 H         -65.884613     -176.292145      -58.780346
 H         -69.023354     -179.875626      -59.093700
 C         -65.439171     -175.733521      -59.641872
 C         -66.128265     -174.701218      -60.435753
 C         -63.929592     -176.026886      -59.621704
 C         -65.324188     -173.421371      -60.577412
 C         -63.184357     -174.755386      -59.581650
 C         -63.684395     -173.759903      -60.603832
 H         -67.013680     -174.501724      -59.877506
 H         -66.414452     -174.828033      -61.535446
 H         -63.725914     -176.623276      -58.744122
 H         -63.754406     -176.706451      -60.534462
 H         -65.378014     -172.886932      -59.662807
 H         -65.636086     -172.775375      -61.391689
 H         -62.124828     -174.981232      -59.870777
 H         -63.158497     -174.312149      -58.608799
 H         -63.163059     -172.804550      -60.441582
 H         -63.486729     -173.895187      -61.729359
