20
 generated by VMD
 C         -70.047470     -181.327774      -63.002663
 N         -71.195442     -181.335968      -63.290813
 H         -67.504150     -181.610397      -61.227737
 H         -68.994072     -181.268860      -62.670341
 C         -66.857224     -180.830566      -60.920681
 C         -65.547890     -181.346191      -60.370125
 C         -67.364815     -179.451675      -60.643505
 C         -64.376930     -180.248093      -60.785774
 C         -66.299217     -178.357010      -60.857403
 C         -64.989647     -178.877716      -60.241531
 H         -65.280991     -182.319550      -60.829552
 H         -65.731079     -181.325882      -59.253296
 H         -68.210602     -179.227036      -61.413006
 H         -67.845039     -179.451126      -59.581718
 H         -64.232697     -180.148224      -61.916821
 H         -63.437466     -180.710327      -60.434238
 H         -66.495186     -177.389679      -60.369972
 H         -66.125748     -178.279541      -61.927074
 H         -64.179932     -178.111404      -60.525372
 H         -65.008751     -178.836716      -59.094513
