20
 generated by VMD
 C         -50.860668     -129.523636      -45.257595
 N         -50.938503     -129.816559      -44.174942
 H         -49.275280     -128.659546      -41.844910
 H         -50.900055     -129.205475      -46.280117
 C         -48.231194     -128.903839      -41.614246
 C         -47.888214     -130.317032      -41.101738
 C         -47.276237     -127.877754      -40.961853
 C         -46.435993     -130.719788      -41.325199
 C         -45.830463     -128.312683      -41.300400
 C         -45.484951     -129.642349      -40.856430
 H         -48.445812     -131.060822      -41.571198
 H         -48.218082     -130.397202      -40.001198
 H         -47.639668     -126.861366      -41.295177
 H         -47.346836     -128.011841      -39.905643
 H         -46.212383     -130.769424      -42.386997
 H         -46.413830     -131.647507      -40.717537
 H         -45.246368     -127.458977      -41.008179
 H         -45.797493     -128.229004      -42.443306
 H         -44.497868     -129.858704      -41.299431
 H         -45.246956     -129.716751      -39.784855
