20
 generated by VMD
 C         -50.433296     -129.181244      -43.593678
 N         -50.842991     -129.601120      -44.583355
 H         -48.829208     -127.972961      -40.658714
 H         -50.176453     -128.885513      -42.610748
 C         -47.800049     -128.166763      -40.498302
 C         -47.168976     -129.470139      -40.237602
 C         -46.957809     -126.974510      -40.636856
 C         -46.268970     -129.854843      -41.398373
 C         -45.959366     -127.202431      -41.824085
 C         -45.254543     -128.595932      -41.485020
 H         -47.896423     -130.215378      -40.122398
 H         -46.510933     -129.389175      -39.283249
 H         -47.460068     -125.937782      -40.812626
 H         -46.379772     -126.768761      -39.764137
 H         -46.886463     -129.820572      -42.336288
 H         -45.730812     -130.848679      -41.042824
 H         -45.223003     -126.438377      -41.808247
 H         -46.484684     -127.414948      -42.712250
 H         -44.513779     -128.829681      -42.278610
 H         -44.689243     -128.528381      -40.572037
