20
 generated by VMD
 C          -6.198571      -22.295343        1.923814
 N          -6.435875      -22.952143        2.778615
 H          -5.471473      -19.487946       -0.726948
 H          -6.751381      -20.510893       -0.231445
 C          -6.279923      -20.085354       -1.070281
 C          -5.810152      -21.227873       -1.932729
 C          -7.145256      -19.081284       -1.834065
 C          -6.918821      -21.955217       -2.618700
 C          -8.331927      -19.873142       -2.472784
 C          -7.825629      -21.034315       -3.352062
 H          -5.172090      -21.897730       -1.370586
 H          -5.074422      -20.907999       -2.767028
 H          -7.666132      -18.329163       -1.178459
 H          -6.554568      -18.587761       -2.699356
 H          -7.530045      -22.510023       -1.885039
 H          -6.456065      -22.631758       -3.366486
 H          -8.832242      -19.213852       -3.215283
 H          -8.979031      -20.184402       -1.643868
 H          -8.712325      -21.619841       -3.607780
 H          -7.458172      -20.670082       -4.313605
