20
 generated by VMD
 C         -68.359177     -185.227249      -67.308418
 N         -67.637619     -186.056198      -66.944855
 H         -69.891235     -185.151398      -64.648079
 H         -69.068489     -184.386658      -67.565620
 C         -69.703506     -185.449219      -63.557011
 C         -70.814911     -185.118286      -62.533241
 C         -68.462280     -186.269943      -63.228226
 C         -70.455894     -185.362045      -61.025303
 C         -68.280983     -186.497116      -61.719986
 C         -69.638107     -186.635315      -60.924690
 H         -71.636513     -185.779739      -62.882603
 H         -70.969887     -184.052841      -62.572716
 H         -68.760948     -187.237244      -63.706657
 H         -67.546219     -185.853607      -63.589352
 H         -71.349709     -185.556335      -60.436684
 H         -69.881630     -184.547821      -60.671940
 H         -67.641464     -185.716370      -61.350418
 H         -67.825043     -187.489014      -61.576725
 H         -70.161118     -187.553513      -61.313892
 H         -69.188896     -186.767273      -59.888985
