20
 generated by VMD
 C         -28.138807      -81.998230      -26.464598
 N         -28.074575      -82.347359      -27.560789
 H         -30.753931      -83.760735      -26.270805
 H         -27.985386      -81.615822      -25.509287
 C         -31.099419      -84.527954      -25.522301
 C         -30.684845      -84.319695      -24.081457
 C         -31.857138      -85.770508      -25.957336
 C         -31.825682      -84.772514      -23.107620
 C         -32.936523      -86.190002      -24.876768
 C         -32.240387      -86.132812      -23.520592
 H         -30.582638      -83.294739      -23.742125
 H         -29.732788      -84.939171      -23.927818
 H         -32.355862      -85.432236      -26.838894
 H         -31.179260      -86.633888      -26.202627
 H         -32.673904      -84.048004      -23.307728
 H         -31.572769      -84.561195      -22.010237
 H         -33.433784      -87.169449      -24.953915
 H         -33.729923      -85.518654      -24.849014
 H         -32.858154      -86.445496      -22.778814
 H         -31.397160      -86.830299      -23.450033
