20
 generated by VMD
 C         -33.633308      -96.359871      -25.265017
 N         -32.789917      -97.055588      -24.866798
 H         -34.784771      -93.543495      -27.289238
 H         -34.388882      -95.878357      -25.725761
 C         -34.815460      -93.398926      -28.384943
 C         -35.950001      -93.889885      -29.204281
 C         -33.578987      -93.280014      -29.189089
 C         -36.273491      -93.007332      -30.460478
 C         -33.735371      -92.567818      -30.569130
 C         -35.002743      -92.940125      -31.364668
 H         -36.792751      -93.894203      -28.515985
 H         -35.821228      -94.939713      -29.600029
 H         -32.830334      -92.727417      -28.622625
 H         -33.238670      -94.315140      -29.402452
 H         -36.604534      -92.015419      -30.385586
 H         -36.996269      -93.642227      -31.073019
 H         -32.903042      -92.770088      -31.237087
 H         -33.560940      -91.446213      -30.383781
 H         -35.198483      -92.296036      -32.276962
 H         -34.732746      -93.899345      -31.690569
