20
 generated by VMD
 C         -28.306383      -86.221878      -26.919357
 N         -27.597467      -85.586632      -26.298403
 H         -31.277180      -85.143059      -25.720896
 H         -29.105120      -86.710495      -27.538855
 C         -31.976562      -86.054871      -25.692904
 C         -32.553349      -86.840279      -24.360737
 C         -31.953846      -86.926804      -26.920523
 C         -34.026733      -87.217827      -24.622698
 C         -33.311539      -87.579384      -27.114363
 C         -34.031425      -88.085732      -25.893301
 H         -32.535027      -86.212593      -23.531033
 H         -31.916033      -87.781860      -24.296429
 H         -31.791134      -86.448486      -27.892036
 H         -31.271334      -87.779648      -26.882107
 H         -34.606575      -86.274796      -24.826424
 H         -34.454758      -87.745934      -23.716721
 H         -33.111320      -88.407562      -27.854475
 H         -33.957088      -86.919334      -27.600780
 H         -34.982395      -88.360970      -26.196047
 H         -33.558746      -89.003532      -25.580587
