20
 generated by VMD
 C         -40.313755     -118.307327      -34.808338
 N         -39.438698     -117.558937      -35.057003
 H         -42.571396     -116.247887      -36.651176
 H         -41.324921     -118.679031      -34.681728
 C         -43.281464     -116.681587      -37.287632
 C         -42.877064     -117.018486      -38.653648
 C         -44.693752     -116.347488      -36.988190
 C         -43.907066     -117.785851      -39.386143
 C         -45.761341     -116.932365      -37.878948
 C         -45.275051     -117.019608      -39.328465
 H         -41.959888     -117.517860      -38.549084
 H         -42.699291     -116.097237      -39.110218
 H         -45.119690     -116.408241      -35.985516
 H         -44.836731     -115.217827      -37.134251
 H         -44.092873     -118.848686      -39.016445
 H         -43.554226     -117.784775      -40.506790
 H         -46.630325     -116.417923      -37.910496
 H         -45.942410     -117.911705      -37.436550
 H         -45.958054     -117.586151      -39.860821
 H         -45.102146     -115.938766      -39.672333
