20
 generated by VMD
 C         -19.627005      -63.917488      -16.527060
 N         -20.080997      -63.063725      -17.144070
 H         -23.319464      -63.277985      -17.181517
 H         -19.320719      -64.597282      -15.635028
 C         -23.883389      -64.112106      -17.487482
 C         -24.438356      -64.288582      -18.950954
 C         -24.439133      -65.179848      -16.561535
 C         -24.722588      -65.683609      -19.387556
 C         -24.790880      -66.577408      -17.149157
 C         -25.580950      -66.484879      -18.435192
 H         -23.762623      -63.717377      -19.580835
 H         -25.351929      -63.695267      -19.117895
 H         -23.779377      -65.263214      -15.722758
 H         -25.401230      -64.810257      -16.116922
 H         -23.762592      -66.116646      -19.552902
 H         -25.198925      -65.553360      -20.347160
 H         -25.343122      -67.246582      -16.509563
 H         -23.860229      -67.154503      -17.290400
 H         -25.480406      -67.458481      -18.884880
 H         -26.625034      -66.211250      -18.217337
