20
 generated by VMD
 C         -39.955692      -99.449890      -28.703543
 N         -39.183498     -100.066193      -28.080097
 H         -37.362591      -98.994118      -30.541426
 H         -40.833225      -99.049324      -29.328203
 C         -36.465359      -98.438232      -30.759687
 C         -35.889118      -98.742668      -32.058121
 C         -35.472748      -98.077919      -29.604334
 C         -34.543041      -97.918472      -32.410492
 C         -34.242176      -97.208694      -29.965666
 C         -33.647320      -97.698158      -31.198378
 H         -36.520653      -98.480644      -32.838795
 H         -35.699169      -99.839706      -32.247406
 H         -35.905285      -97.742203      -28.704744
 H         -34.964031      -99.037224      -29.331747
 H         -34.890945      -96.907997      -32.782265
 H         -34.044720      -98.351036      -33.252087
 H         -33.629620      -97.316376      -29.127581
 H         -34.560551      -96.174248      -30.150791
 H         -32.838764      -96.901817      -31.340910
 H         -33.219646      -98.655693      -31.020407
