20
 generated by VMD
 C         -62.658630     -174.496185      -54.754128
 N         -63.421745     -174.105972      -55.591812
 H         -63.328583     -172.965225      -57.885075
 H         -61.868584     -174.824265      -54.070335
 C         -63.461235     -171.971375      -58.334885
 C         -63.602428     -170.769226      -57.516201
 C         -64.158432     -172.049713      -59.619656
 C         -63.733635     -169.485611      -58.324730
 C         -64.492271     -170.708725      -60.280193
 C         -64.794952     -169.515900      -59.458866
 H         -62.585747     -170.837570      -56.910961
 H         -64.369568     -170.971603      -56.887024
 H         -63.762928     -172.816635      -60.227966
 H         -65.051468     -172.665710      -59.407795
 H         -62.734291     -169.121033      -58.754227
 H         -64.118225     -168.713455      -57.537708
 H         -65.409355     -170.905807      -60.799141
 H         -63.680580     -170.367523      -60.961266
 H         -64.835228     -168.572403      -60.050068
 H         -65.825645     -169.666550      -58.979031
