20
 generated by VMD
 C         -70.502342     -198.718338      -64.276131
 N         -70.103539     -198.370850      -65.318954
 H         -72.595284     -196.619919      -66.561646
 H         -71.009384     -199.121902      -63.432522
 C         -73.196648     -195.844421      -67.059654
 C         -73.299011     -194.480621      -66.514824
 C         -74.185677     -196.341400      -68.085938
 C         -73.230499     -193.488312      -67.652306
 C         -74.846634     -195.142639      -68.822601
 C         -73.901138     -193.917618      -69.096367
 H         -72.443489     -194.214539      -65.909698
 H         -74.377975     -194.343597      -66.049271
 H         -73.628143     -196.884415      -68.833633
 H         -74.933784     -196.886734      -67.581863
 H         -72.153282     -193.328888      -67.837929
 H         -73.626137     -192.553467      -67.314247
 H         -75.735214     -194.913925      -68.198090
 H         -75.163864     -195.415176      -69.870872
 H         -73.036995     -194.380951      -69.704361
 H         -74.314293     -193.167206      -69.647018
