20
 generated by VMD
 C         -31.504242      -75.633118      -23.708786
 N         -30.924099      -76.119164      -24.615471
 H         -29.602539      -78.264336      -22.037455
 H         -31.591513      -75.209076      -22.709156
 C         -28.501217      -78.160698      -21.964758
 C         -27.594570      -78.288429      -23.128180
 C         -27.901663      -78.127296      -20.603722
 C         -26.418741      -77.479568      -23.031639
 C         -26.845085      -77.101982      -20.524582
 C         -25.719448      -77.380424      -21.597527
 H         -28.075745      -78.177643      -24.025158
 H         -27.306250      -79.336617      -23.241819
 H         -28.722662      -77.841393      -19.971537
 H         -27.722422      -79.238274      -20.317564
 H         -26.679510      -76.460854      -23.364847
 H         -25.625862      -77.803810      -23.669315
 H         -26.326372      -77.075928      -19.460562
 H         -27.336609      -76.112427      -20.531107
 H         -25.145380      -76.444405      -21.578993
 H         -25.175755      -78.353706      -21.314365
