20
 generated by VMD
 C         -37.978619      -98.791397      -27.396524
 N         -37.611931      -98.553894      -26.339521
 H         -36.519646      -97.145966      -29.029062
 H         -38.353390      -98.876999      -28.471865
 C         -35.869404      -96.703598      -29.826080
 C         -35.553993      -97.341446      -31.215029
 C         -34.780342      -95.841667      -29.182737
 C         -34.637413      -96.455826      -32.077888
 C         -34.153984      -94.875992      -30.150112
 C         -33.612190      -95.585838      -31.389915
 H         -36.497478      -97.652817      -31.763205
 H         -35.047935      -98.259773      -30.991955
 H         -35.261314      -95.201660      -28.384830
 H         -33.962467      -96.334702      -28.614321
 H         -35.401188      -95.920753      -32.684093
 H         -34.150715      -97.166145      -32.747871
 H         -33.391655      -94.202400      -29.740322
 H         -35.033203      -94.109482      -30.468523
 H         -33.240978      -94.837463      -32.189571
 H         -32.834095      -96.204903      -31.220243
