20
 generated by VMD
 C         -38.098946     -110.013756      -36.199688
 N         -37.519726     -109.019714      -36.144230
 H         -40.274639     -113.044670      -36.700420
 H         -38.636189     -110.929367      -36.307610
 C         -41.214279     -113.063606      -36.084389
 C         -42.385284     -113.863007      -36.595661
 C         -41.414917     -111.862442      -35.097469
 C         -43.444023     -114.143898      -35.531334
 C         -42.497688     -112.230011      -34.162617
 C         -43.752323     -112.987915      -34.626358
 H         -42.039150     -114.856895      -37.001442
 H         -42.749359     -113.387115      -37.486362
 H         -40.406471     -111.486847      -34.652985
 H         -41.882633     -110.968208      -35.685001
 H         -42.963120     -114.863434      -34.946323
 H         -44.419197     -114.537193      -36.040928
 H         -42.786118     -111.243767      -33.594910
 H         -42.187042     -112.933617      -33.313549
 H         -44.304607     -113.216866      -33.769058
 H         -44.414467     -112.339539      -35.252926
