20
 generated by VMD
 C         -11.864038      -25.714443       -0.855072
 N         -12.257566      -25.384575        0.137942
 H          -8.109991      -26.581440       -1.504082
 H          -9.132685      -25.829723       -2.733272
 C          -8.123199      -25.964172       -2.447334
 C          -7.469358      -26.715908       -3.560548
 C          -7.651557      -24.545042       -2.232657
 C          -7.188657      -25.963089       -4.808362
 C          -7.398520      -23.853752       -3.489148
 C          -6.552525      -24.565241       -4.504408
 H          -8.030165      -27.664497       -3.825255
 H          -6.557352      -27.039074       -3.116743
 H          -8.306468      -24.006069       -1.591981
 H          -6.687388      -24.576996       -1.667354
 H          -8.094482      -25.752148       -5.344837
 H          -6.529114      -26.545063       -5.459347
 H          -6.950833      -22.879818       -3.271341
 H          -8.388284      -23.744539       -3.906643
 H          -6.565886      -23.960369       -5.413814
 H          -5.530635      -24.688477       -4.038323
