20
 generated by VMD
 C         -68.180756     -179.296478      -58.368221
 N         -67.274651     -178.855637      -57.814274
 H         -66.017876     -176.683182      -59.225052
 H         -68.937737     -179.827438      -58.873356
 C         -65.437988     -175.772919      -59.387901
 C         -65.980377     -174.783539      -60.422657
 C         -64.049736     -175.925110      -59.691956
 C         -65.277260     -173.389374      -60.281654
 C         -63.213829     -174.636017      -59.678719
 C         -63.758663     -173.630096      -60.721699
 H         -67.058647     -174.791779      -60.315807
 H         -65.788452     -175.182999      -61.517365
 H         -63.581821     -176.531357      -58.933388
 H         -63.803181     -176.456116      -60.682491
 H         -65.451225     -173.071686      -59.295109
 H         -65.741203     -172.702698      -60.947067
 H         -62.132221     -174.811508      -59.925171
 H         -63.189472     -174.299973      -58.682056
 H         -63.142639     -172.780258      -60.471298
 H         -63.468502     -174.081772      -61.748653
