20
 generated by VMD
 C          -9.612581      -24.998175        0.623932
 N         -10.640282      -25.449806        0.580134
 H          -6.356699      -23.602797       -0.705265
 H          -7.958865      -23.017651       -1.382188
 C          -6.936202      -23.430767       -1.639247
 C          -7.184947      -24.702673       -2.379407
 C          -6.421978      -22.361866       -2.569940
 C          -8.069288      -24.634188       -3.594375
 C          -7.259135      -22.231682       -3.772058
 C          -7.762705      -23.479225       -4.491729
 H          -7.639790      -25.409559       -1.736010
 H          -6.139997      -25.089758       -2.633822
 H          -6.302712      -21.442970       -2.009817
 H          -5.397711      -22.602118       -2.878145
 H          -9.060717      -24.517736       -3.190132
 H          -8.126623      -25.566685       -4.111290
 H          -6.793903      -21.569666       -4.541144
 H          -8.183542      -21.709044       -3.474173
 H          -8.584504      -23.290613       -5.176972
 H          -6.978557      -23.731728       -5.192921
