20
 generated by VMD
 C         -22.583614      -55.221615      -15.302937
 N         -23.203526      -55.202557      -16.343452
 H         -18.890438      -54.561161      -15.553969
 H         -21.934206      -54.823162      -14.581951
 C         -19.192596      -55.334385      -14.787928
 C         -19.063789      -55.179848      -13.297184
 C         -19.501762      -56.718811      -15.457609
 C         -19.631443      -56.467731      -12.580001
 C         -19.456179      -57.928513      -14.604202
 C         -19.010595      -57.757969      -13.168154
 H         -19.639154      -54.269550      -12.984250
 H         -18.025429      -55.068703      -12.997050
 H         -20.555790      -56.607891      -15.920254
 H         -18.738371      -56.958736      -16.190977
 H         -20.724600      -56.521328      -12.799320
 H         -19.493921      -56.440289      -11.520495
 H         -18.904583      -58.776428      -15.066102
 H         -20.434301      -58.371769      -14.577215
 H         -19.501303      -58.641094      -12.721153
 H         -17.959766      -57.864151      -13.097457
