20
 generated by VMD
 C         -57.655128     -165.609726      -56.537312
 N         -57.817169     -166.693939      -56.215714
 H         -60.534542     -165.054688      -54.382683
 H         -57.389381     -164.615738      -56.933228
 C         -61.503937     -165.218765      -54.803139
 C         -61.845184     -166.563965      -55.268887
 C         -62.283283     -164.124359      -55.402397
 C         -63.389896     -166.900116      -55.531483
 C         -63.783051     -164.463135      -55.774410
 C         -63.910797     -165.827286      -56.426754
 H         -61.398300     -167.306885      -54.577888
 H         -61.262512     -166.814606      -56.235134
 H         -62.267609     -163.238144      -54.748753
 H         -61.879059     -163.894592      -56.331894
 H         -63.831776     -166.991226      -54.617306
 H         -63.445572     -167.822037      -56.087189
 H         -64.258675     -163.534561      -56.474503
 H         -64.486191     -164.368546      -54.827896
 H         -64.976982     -165.947464      -56.670502
 H         -63.283958     -165.845718      -57.360374
