20
 generated by VMD
 C         -78.780312     -204.377853      -70.695297
 N         -79.837646     -204.342224      -70.304756
 H         -76.365990     -203.292023      -68.225891
 H         -77.786278     -204.497009      -70.925331
 C         -75.532722     -202.863403      -68.763832
 C         -75.713432     -201.548386      -69.603966
 C         -74.347542     -203.754318      -68.869682
 C         -74.743935     -201.793610      -70.836761
 C         -73.113998     -202.927872      -69.164505
 C         -73.336800     -201.829895      -70.351410
 H         -75.451874     -200.696259      -68.944000
 H         -76.758980     -201.385391      -69.861130
 H         -74.220314     -204.351898      -67.988571
 H         -74.550827     -204.383057      -69.660858
 H         -74.824875     -200.977554      -71.502037
 H         -74.952393     -202.703583      -71.395538
 H         -72.290688     -203.712143      -69.482536
 H         -72.700111     -202.434586      -68.229782
 H         -73.115456     -200.904510      -69.805580
 H         -72.587364     -202.064636      -71.140671
