20
 generated by VMD
 C         -68.308510     -194.259933      -66.175163
 N         -67.758469     -194.420883      -65.139435
 H         -70.791702     -191.496399      -67.395416
 H         -68.498840     -194.066452      -67.253342
 C         -71.518036     -191.461014      -66.583862
 C         -72.428284     -190.230164      -66.455666
 C         -71.557701     -192.508926      -65.512138
 C         -73.862404     -190.634567      -66.260452
 C         -72.904655     -192.323730      -64.608017
 C         -74.120171     -191.993240      -65.559044
 H         -72.255791     -189.514465      -67.217926
 H         -72.148293     -189.727814      -65.484764
 H         -71.638252     -193.570908      -65.922325
 H         -70.699417     -192.278305      -64.815842
 H         -74.123535     -190.740891      -67.299934
 H         -74.354286     -189.867462      -65.673271
 H         -72.666893     -191.536865      -63.829144
 H         -73.151825     -193.240707      -64.078453
 H         -74.201096     -192.754211      -66.246216
 H         -75.167198     -191.945587      -64.979858
