20
 generated by VMD
 C         -27.843904      -81.184410      -27.559261
 N         -28.990717      -81.330894      -27.510561
 H         -29.339714      -83.416130      -25.119652
 H         -26.737392      -81.044655      -27.297462
 C         -30.260719      -83.812485      -24.676296
 C         -30.313717      -84.055130      -23.127151
 C         -31.143860      -84.899055      -25.484104
 C         -31.679428      -84.401955      -22.626295
 C         -32.385757      -85.385284      -24.769373
 C         -32.265079      -85.607475      -23.315565
 H         -30.105310      -83.140800      -22.633726
 H         -29.500385      -84.815247      -22.888239
 H         -31.413960      -84.316505      -26.404129
 H         -30.614927      -85.837021      -25.678907
 H         -32.368477      -83.565422      -22.703167
 H         -31.592531      -84.477509      -21.530096
 H         -32.759399      -86.268242      -25.309757
 H         -33.214867      -84.731606      -24.946251
 H         -33.283421      -85.864037      -22.963993
 H         -31.659660      -86.503563      -23.218327
