20
 generated by VMD
 C          -4.682487      -21.025671        2.180192
 N          -5.159586      -20.156097        2.688548
 H          -5.013575      -18.890730       -0.327392
 H          -5.777782      -20.480192       -0.198707
 C          -5.802285      -19.539793       -0.763111
 C          -5.633692      -19.889660       -2.238626
 C          -7.188042      -18.862532       -0.586284
 C          -6.734664      -20.750978       -2.874231
 C          -8.349508      -19.793459       -1.213130
 C          -8.098068      -20.135574       -2.668058
 H          -4.649905      -20.403790       -2.401755
 H          -5.493655      -18.949406       -2.886572
 H          -7.358160      -18.720564        0.439902
 H          -7.188713      -17.820190       -0.923702
 H          -6.788947      -21.800451       -2.504798
 H          -6.454371      -20.844755       -3.922708
 H          -9.259250      -19.210241       -1.125918
 H          -8.425257      -20.691742       -0.540412
 H          -8.863461      -20.791288       -3.191560
 H          -8.182196      -19.175047       -3.237217
