20
 generated by VMD
 C         -19.896774      -57.459934      -16.853449
 N         -19.202137      -57.850952      -17.686857
 H         -22.643000      -59.329571      -16.741415
 H         -20.602015      -56.927414      -16.048750
 C         -22.608280      -60.362862      -16.516645
 C         -23.908871      -61.181263      -16.403639
 C         -21.359913      -60.920914      -15.899775
 C         -23.821321      -62.615776      -15.808989
 C         -21.350796      -62.211330      -15.147535
 C         -22.689754      -62.784260      -14.757393
 H         -24.358862      -61.252975      -17.458370
 H         -24.585596      -60.650501      -15.718341
 H         -20.484249      -60.886585      -16.598482
 H         -21.256489      -60.103203      -15.185890
 H         -23.593695      -63.324505      -16.648899
 H         -24.847849      -62.856586      -15.356791
 H         -20.639965      -62.091782      -14.257764
 H         -20.793278      -63.014214      -15.633251
 H         -22.715097      -63.895596      -14.462189
 H         -23.017958      -62.239925      -13.854450
