20
 generated by VMD
 C         -59.015476     -159.456726      -57.297825
 N         -58.272289     -160.172073      -57.930351
 H         -58.815723     -161.625275      -54.938923
 H         -59.725140     -158.859558      -56.710178
 C         -59.495411     -161.565231      -54.086308
 C         -58.800308     -162.021805      -52.818588
 C         -60.831337     -162.205261      -54.471493
 C         -59.960938     -161.934113      -51.710850
 C         -61.841591     -161.886551      -53.329117
 C         -61.395557     -162.424301      -52.026203
 H         -58.065777     -161.227386      -52.564045
 H         -58.441105     -163.124680      -52.836620
 H         -61.109528     -161.990509      -55.459103
 H         -60.736103     -163.302765      -54.449383
 H         -60.065189     -160.853088      -51.193073
 H         -59.570396     -162.516998      -50.819271
 H         -62.835796     -162.209946      -53.738213
 H         -62.021248     -160.761581      -53.205479
 H         -62.035213     -162.181000      -51.250008
 H         -61.343529     -163.520035      -52.084980
