20
 generated by VMD
 C          -7.332635      -23.443487        1.738012
 N          -7.473382      -22.689041        2.532425
 H          -8.899854      -23.595545       -1.410939
 H          -9.386761      -22.573910       -2.789810
 C          -8.525455      -22.839565       -2.188592
 C          -7.692345      -23.536444       -3.155332
 C          -7.805420      -21.712149       -1.538205
 C          -6.980690      -22.598675       -4.076529
 C          -7.105135      -20.745941       -2.491452
 C          -6.151254      -21.541517       -3.399716
 H          -8.298762      -24.266943       -3.647134
 H          -6.841316      -24.160624       -2.695217
 H          -8.481204      -21.145798       -0.903438
 H          -7.044652      -22.184288       -0.905973
 H          -7.691086      -22.100925       -4.734070
 H          -6.416903      -23.203848       -4.802671
 H          -6.572478      -20.013874       -1.892565
 H          -7.867045      -20.202757       -3.049495
 H          -5.747315      -20.844448       -4.172504
 H          -5.276068      -21.977648       -2.802534
