20
 generated by VMD
 C         -59.430450     -158.230713      -56.629311
 N         -58.625080     -158.583420      -57.445656
 H         -60.416740     -158.173660      -53.527649
 H         -60.131321     -157.852615      -55.859768
 C         -60.000839     -159.013107      -53.015457
 C         -58.546825     -158.858444      -52.496422
 C         -60.556351     -160.355042      -53.190788
 C         -58.241638     -159.955383      -51.549320
 C         -60.331394     -161.303452      -52.041656
 C         -58.737389     -161.370895      -51.972145
 H         -58.404049     -157.865799      -52.094776
 H         -57.855820     -158.874619      -53.333416
 H         -61.561260     -160.232849      -53.386772
 H         -60.151730     -160.842957      -54.093086
 H         -58.814735     -159.558090      -50.617943
 H         -57.296707     -160.050095      -51.166248
 H         -60.578541     -162.361694      -52.143501
 H         -60.851707     -160.946457      -51.197464
 H         -58.646412     -162.142166      -51.172310
 H         -58.287624     -161.793808      -52.840553
