20
 generated by VMD
 C         -78.681870     -209.156372      -77.032387
 N         -79.731415     -208.619476      -76.800064
 H         -78.121078     -209.028458      -73.117500
 H         -77.861938     -209.738708      -77.272057
 C         -78.159004     -209.757233      -72.320763
 C         -77.066757     -209.984329      -71.447693
 C         -79.052040     -210.919128      -72.316315
 C         -77.274818     -210.587921      -70.116600
 C         -79.405930     -211.552597      -71.020409
 C         -78.162117     -211.839066      -70.206261
 H         -76.712685     -208.991302      -71.304413
 H         -76.371689     -210.652451      -71.929382
 H         -79.998848     -210.556244      -72.787094
 H         -78.736099     -211.701828      -72.958740
 H         -77.793289     -209.814499      -69.574242
 H         -76.346169     -210.779358      -69.594032
 H         -80.064003     -212.520355      -70.997643
 H         -79.991943     -210.837875      -70.451378
 H         -78.471474     -212.109909      -69.164322
 H         -77.606186     -212.697830      -70.667908
