20
 generated by VMD
 C         -31.478115      -77.829063      -26.449650
 N         -31.738127      -77.983749      -27.542974
 H         -29.354982      -78.759117      -23.235167
 H         -31.369625      -77.484947      -25.393242
 C         -28.988499      -79.779900      -22.967600
 C         -27.529009      -80.087914      -23.149750
 C         -29.886261      -80.986809      -22.879799
 C         -27.116186      -80.914810      -21.845547
 C         -29.445072      -81.840973      -21.684582
 C         -27.963774      -82.102676      -21.583521
 H         -27.034178      -79.162628      -23.118399
 H         -27.252125      -80.567177      -24.025696
 H         -30.962790      -80.568787      -22.777683
 H         -29.926867      -81.688438      -23.732241
 H         -27.063177      -80.269012      -20.922752
 H         -26.117004      -81.250526      -21.933123
 H         -30.058277      -82.698105      -21.785563
 H         -29.786945      -81.230873      -20.722937
 H         -27.693941      -82.526817      -20.601753
 H         -27.670765      -82.810417      -22.362768
