20
 generated by VMD
 C         -49.990871     -131.606873      -46.632538
 N         -50.199783     -131.865189      -47.808826
 H         -48.437786     -131.583511      -43.801903
 H         -49.677830     -131.365585      -45.615231
 C         -48.936249     -132.231430      -43.131653
 C         -49.693577     -133.522141      -43.373661
 C         -48.753662     -131.849060      -41.751404
 C         -48.977570     -134.624420      -42.558674
 C         -48.044090     -132.973450      -40.997570
 C         -48.790665     -134.269257      -41.036606
 H         -49.568356     -133.677002      -44.489975
 H         -50.727844     -133.570450      -43.130463
 H         -48.249023     -130.834229      -41.702820
 H         -49.635502     -131.607681      -41.258469
 H         -47.969883     -134.958267      -42.951149
 H         -49.548817     -135.585739      -42.498150
 H         -47.814754     -132.653442      -40.014660
 H         -46.976311     -133.000000      -41.368904
 H         -48.186626     -135.102875      -40.576977
 H         -49.837627     -134.085815      -40.654015
