20
 generated by VMD
 C         -58.404282     -161.901428      -56.367943
 N         -57.231468     -161.834518      -56.639099
 H         -59.522713     -164.738647      -55.355423
 H         -59.484356     -161.935547      -56.123577
 C         -60.384789     -164.238831      -54.832802
 C         -60.318111     -163.948944      -53.406590
 C         -61.650429     -164.325363      -55.585403
 C         -61.298008     -162.827438      -53.232338
 C         -62.738724     -163.508163      -55.122021
 C         -62.743599     -163.234909      -53.600239
 H         -59.378265     -163.479691      -53.119808
 H         -60.528767     -164.751953      -52.760624
 H         -61.602463     -164.072128      -56.627686
 H         -61.998623     -165.399323      -55.508671
 H         -60.910370     -162.014420      -53.888699
 H         -61.281509     -162.563309      -52.191528
 H         -63.764767     -163.855148      -55.522350
 H         -62.695995     -162.460388      -55.525745
 H         -63.352264     -162.305435      -53.508373
 H         -63.234333     -164.101929      -53.023483
