20
 generated by VMD
 C         -11.778086      -41.409401       -6.470031
 N         -11.024412      -42.254871       -6.468735
 H         -14.684352      -42.434139       -8.231743
 H         -15.153708      -41.216770       -9.601011
 C         -15.288547      -42.184441       -9.166795
 C         -16.785227      -42.334763       -8.814920
 C         -14.655368      -43.086292      -10.231948
 C         -17.606976      -42.489689      -10.112754
 C         -15.590613      -43.155888      -11.472712
 C         -17.003841      -43.589161      -11.016207
 H         -17.107771      -41.479980       -8.210382
 H         -17.030497      -43.185028       -8.119059
 H         -13.611286      -42.716892      -10.496387
 H         -14.415387      -44.135216       -9.854942
 H         -17.723970      -41.568989      -10.737707
 H         -18.656942      -42.638531       -9.805199
 H         -15.257195      -43.930473      -12.100357
 H         -15.613568      -42.156509      -12.013762
 H         -17.679106      -43.687572      -11.856252
 H         -16.861000      -44.544941      -10.454979
