20
 generated by VMD
 C         -57.582703     -162.087357      -56.200466
 N         -57.169460     -162.138153      -57.240471
 H         -59.553020     -164.624268      -55.096813
 H         -58.061947     -162.070435      -55.245983
 C         -60.517078     -164.430603      -54.817020
 C         -60.793430     -164.402161      -53.392250
 C         -61.658058     -164.559769      -55.707909
 C         -61.835926     -163.289841      -53.159081
 C         -62.922485     -163.698761      -55.325630
 C         -63.125401     -163.449417      -53.902126
 H         -59.924046     -164.083801      -52.858799
 H         -61.190586     -165.381241      -53.073460
 H         -61.333183     -164.364227      -56.732342
 H         -62.060699     -165.611984      -55.584724
 H         -61.423588     -162.281540      -53.273880
 H         -62.101627     -163.490311      -52.185749
 H         -63.852402     -164.133011      -55.619511
 H         -62.784180     -162.600845      -55.671986
 H         -63.687626     -162.555466      -53.548748
 H         -63.669865     -164.225235      -53.357899
