20
 generated by VMD
 C         -79.436752     -207.071060      -75.821854
 N         -80.238319     -207.134476      -74.924286
 H         -77.358017     -207.922211      -73.089340
 H         -78.916023     -207.063324      -76.724930
 C         -77.096565     -208.613937      -72.221581
 C         -75.805092     -208.383835      -71.445564
 C         -77.926094     -209.696945      -71.601234
 C         -76.247398     -207.859436      -70.008240
 C         -78.138565     -209.465561      -70.130058
 C         -76.939392     -209.051102      -69.339066
 H         -75.369240     -207.483902      -71.866730
 H         -74.995720     -209.147781      -71.473679
 H         -78.971962     -209.829376      -72.045998
 H         -77.502487     -210.707397      -71.735161
 H         -76.924950     -207.015594      -70.103409
 H         -75.450882     -207.441299      -69.363823
 H         -78.416069     -210.431519      -69.751442
 H         -78.969849     -208.780075      -69.906319
 H         -77.120308     -208.585434      -68.327682
 H         -76.248161     -209.869003      -69.136017
