20
 generated by VMD
 C         -79.786263     -206.742661      -73.300705
 N         -79.699837     -206.183838      -74.278656
 H         -78.233910     -205.447693      -70.590691
 H         -79.846207     -207.196182      -72.266006
 C         -77.219772     -205.665283      -70.291962
 C         -76.308220     -204.759399      -70.946747
 C         -76.898575     -206.907898      -69.611145
 C         -74.888893     -204.825897      -70.460701
 C         -75.509865     -207.004211      -69.152901
 C         -74.537560     -206.411713      -70.225677
 H         -76.543037     -203.696915      -70.955696
 H         -76.349983     -205.004883      -71.940102
 H         -77.586327     -207.072693      -68.754715
 H         -77.144684     -207.623596      -70.390862
 H         -74.669022     -204.329483      -69.501343
 H         -74.177208     -204.441238      -71.189590
 H         -75.342926     -208.030502      -69.038437
 H         -75.314819     -206.382584      -68.216202
 H         -73.500122     -206.364960      -69.786858
 H         -74.526810     -207.069824      -71.094757
