20
 generated by VMD
 C         -30.472752      -74.344635      -20.991497
 N         -30.570175      -75.391365      -20.501957
 H         -27.819696      -74.385231      -19.876955
 H         -30.274139      -73.338615      -21.212578
 C         -26.820944      -74.506012      -20.343117
 C         -26.254627      -75.721802      -21.045076
 C         -25.938368      -73.340706      -20.339184
 C         -25.982889      -75.286911      -22.559912
 C         -25.663046      -72.960236      -21.810814
 C         -25.087177      -74.053345      -22.706266
 H         -26.936300      -76.632759      -20.923107
 H         -25.391459      -76.012665      -20.498659
 H         -26.389185      -72.454102      -19.900805
 H         -24.912525      -73.593697      -19.738594
 H         -26.968756      -75.024963      -22.942490
 H         -25.623724      -76.115326      -23.160179
 H         -24.878353      -72.201126      -21.966000
 H         -26.652256      -72.795784      -22.227268
 H         -25.042805      -73.835884      -23.748991
 H         -24.070999      -74.189972      -22.297316
