20
 generated by VMD
 C         -58.524960     -160.499298      -56.892735
 N         -58.622421     -159.883102      -57.815353
 H         -58.844341     -163.437195      -54.986881
 H         -58.357689     -161.123856      -56.023319
 C         -59.681225     -163.406036      -54.317627
 C         -59.514851     -163.149429      -52.844418
 C         -61.135883     -163.420746      -54.812481
 C         -60.366489     -162.187714      -52.045929
 C         -61.929134     -162.274139      -54.218430
 C         -61.827271     -162.183624      -52.683987
 H         -58.525368     -162.737411      -52.670506
 H         -59.489529     -164.071213      -52.359737
 H         -61.254959     -163.584061      -55.957153
 H         -61.648655     -164.328796      -54.460403
 H         -59.951893     -161.262466      -52.019646
 H         -60.458729     -162.612762      -51.003670
 H         -62.930431     -162.437531      -54.626938
 H         -61.406799     -161.336624      -54.589024
 H         -62.285393     -161.211411      -52.401932
 H         -62.404778     -162.924652      -52.187298
