20
 generated by VMD
 C         -30.632860      -75.803688      -22.532141
 N         -31.243818      -74.846947      -22.598684
 H         -28.778017      -78.181862      -21.524563
 H         -30.233023      -76.723633      -22.155682
 C         -27.939072      -77.496078      -21.730841
 C         -26.806391      -78.122673      -22.462938
 C         -27.615873      -76.489586      -20.657413
 C         -25.896959      -76.946815      -23.061283
 C         -26.841705      -75.319107      -21.247309
 C         -25.659122      -75.876060      -22.021681
 H         -27.248026      -78.798012      -23.274660
 H         -26.095572      -78.687714      -21.819536
 H         -28.596203      -76.196747      -20.313753
 H         -27.160416      -77.012970      -19.730520
 H         -26.373018      -76.619850      -24.009510
 H         -24.931379      -77.282356      -23.432344
 H         -26.408627      -74.825562      -20.428015
 H         -27.548164      -74.708893      -21.778111
 H         -25.431562      -74.956802      -22.526991
 H         -24.864498      -76.231117      -21.308502
