20
 generated by VMD
 C         -20.120228      -56.137661      -16.785086
 N         -21.307407      -56.270538      -16.811359
 H         -22.503567      -59.212959      -17.170704
 H         -19.184769      -55.900398      -16.449818
 C         -22.384296      -59.840260      -16.314182
 C         -22.382349      -59.250206      -14.955580
 C         -21.922794      -61.275295      -16.459026
 C         -21.301908      -59.713871      -13.988606
 C         -20.699463      -61.458710      -15.627594
 C         -21.031988      -61.219414      -14.225676
 H         -23.420012      -59.565895      -14.618279
 H         -22.302004      -58.142914      -14.980768
 H         -22.708214      -61.950729      -16.196838
 H         -21.694048      -61.490543      -17.480022
 H         -21.551392      -59.443054      -12.980824
 H         -20.395554      -59.214359      -14.283919
 H         -19.926094      -60.740608      -15.985160
 H         -20.483646      -62.545250      -15.809649
 H         -21.961298      -61.706955      -13.891798
 H         -20.275703      -61.642784      -13.553387
