20
 generated by VMD
 C         -28.945732      -73.465889      -19.135241
 N         -29.601938      -74.246552      -18.641310
 H         -25.206690      -72.809509      -18.931856
 H         -28.451582      -72.700752      -19.879416
 C         -25.563019      -72.787697      -19.930920
 C         -24.918978      -73.822929      -20.756269
 C         -25.745182      -71.374466      -20.362204
 C         -25.453485      -73.842003      -22.115131
 C         -26.293858      -71.342567      -21.870430
 C         -25.615818      -72.440323      -22.722263
 H         -24.949656      -74.786514      -20.346329
 H         -23.864927      -73.778870      -20.798981
 H         -26.309032      -70.798485      -19.623539
 H         -24.751226      -70.832741      -20.438347
 H         -26.403198      -74.463531      -22.154932
 H         -24.740292      -74.510063      -22.680439
 H         -26.165106      -70.353279      -22.286282
 H         -27.330244      -71.468018      -21.783680
 H         -26.018509      -72.370750      -23.721535
 H         -24.546432      -72.162949      -22.784161
