20
 generated by VMD
 C         -41.080482     -104.156174      -35.847054
 N         -41.921394     -104.895309      -36.138550
 H         -38.222488     -103.881638      -33.275532
 H         -40.115829     -103.653786      -35.581985
 C         -38.127701     -104.888123      -32.994823
 C         -36.875439     -105.234505      -32.352646
 C         -39.209976     -105.929993      -33.070145
 C         -37.094524     -106.249352      -31.183489
 C         -39.262856     -107.140434      -32.058876
 C         -37.868523     -107.570335      -31.671993
 H         -36.507244     -104.239029      -31.964323
 H         -36.284950     -105.560875      -33.194126
 H         -40.175312     -105.494781      -32.970901
 H         -39.154793     -106.354187      -34.111294
 H         -37.683155     -105.821053      -30.357727
 H         -36.137699     -106.521278      -30.680490
 H         -40.039646     -107.848915      -32.327782
 H         -39.677326     -106.724792      -31.148991
 H         -37.972820     -108.250526      -30.777271
 H         -37.323135     -108.139160      -32.391384
