20
 generated by VMD
 C         -73.845055     -201.579071      -65.371391
 N         -72.878204     -201.041138      -65.745323
 H         -75.034386     -198.043793      -66.771202
 H         -74.845795     -201.971268      -65.001778
 C         -74.731636     -197.615067      -67.693329
 C         -74.858719     -196.193802      -67.994911
 C         -74.310577     -198.405777      -68.943893
 C         -73.506210     -195.627441      -68.525826
 C         -73.592827     -197.611450      -70.027290
 C         -72.648224     -196.555649      -69.389236
 H         -75.195000     -195.783356      -67.107521
 H         -75.662743     -196.031784      -68.835182
 H         -73.629990     -199.189941      -68.639473
 H         -75.222656     -198.780228      -69.394608
 H         -72.885841     -195.482117      -67.652626
 H         -73.723099     -194.658539      -69.051689
 H         -74.181000     -197.106735      -70.822968
 H         -72.984474     -198.279449      -70.637077
 H         -71.797997     -196.984970      -68.680984
 H         -72.209404     -195.910645      -70.143349
