20
 generated by VMD
 C         -78.693672     -208.550339      -76.950508
 N         -79.226334     -208.418777      -75.945930
 H         -78.977463     -209.295547      -73.362633
 H         -78.292076     -208.692688      -77.968712
 C         -78.495743     -209.878738      -72.562851
 C         -77.055519     -209.709183      -71.908974
 C         -79.217545     -211.106598      -72.064285
 C         -77.140678     -209.860840      -70.390335
 C         -79.102737     -211.441589      -70.585083
 C         -77.735291     -211.175583      -69.990036
 H         -76.688744     -208.709930      -72.134407
 H         -76.463211     -210.521744      -72.238464
 H         -80.206177     -211.075714      -72.397919
 H         -78.721405     -211.953232      -72.553963
 H         -77.867699     -209.062637      -70.076035
 H         -76.171700     -209.678070      -69.886017
 H         -79.271858     -212.454559      -70.272934
 H         -79.923279     -210.907486      -70.023224
 H         -77.761894     -210.979340      -68.922600
 H         -77.140549     -212.082596      -70.047470
