20
 generated by VMD
 C         -12.130581      -31.709684       -8.739140
 N         -12.877644      -31.793055       -9.592772
 H         -10.382741      -34.461395       -6.999780
 H         -11.255919      -33.705276       -5.754288
 C         -11.079581      -34.687382       -6.162976
 C         -10.459339      -35.700596       -5.174985
 C         -12.373481      -35.254875       -6.679202
 C         -11.488909      -36.263920       -4.145078
 C         -13.419150      -35.721664       -5.671250
 C         -12.804695      -36.762749       -4.764926
 H          -9.673779      -35.196838       -4.652488
 H         -10.040681      -36.482777       -5.827832
 H         -12.885232      -34.558865       -7.361660
 H         -12.131712      -36.139778       -7.315963
 H         -11.851433      -35.402546       -3.553336
 H         -11.004481      -36.955597       -3.446259
 H         -14.376722      -36.148834       -6.134573
 H         -13.713882      -34.871857       -5.078015
 H         -13.463234      -37.092293       -4.014053
 H         -12.591930      -37.647739       -5.406061
