20
 generated by VMD
 C         -79.485306     -207.070862      -75.808739
 N         -80.221169     -207.136749      -74.923073
 H         -77.360283     -207.983795      -73.029274
 H         -78.969490     -206.921555      -76.809883
 C         -77.057350     -208.593414      -72.237938
 C         -75.824028     -208.383896      -71.414619
 C         -77.960823     -209.669815      -71.609459
 C         -76.191170     -207.815598      -70.029015
 C         -78.143562     -209.474915      -70.124565
 C         -76.923424     -209.044754      -69.317749
 H         -75.331390     -207.523239      -71.912529
 H         -75.019440     -209.107574      -71.220764
 H         -78.780685     -209.817703      -72.288948
 H         -77.369308     -210.610367      -71.686905
 H         -76.918304     -206.956451      -70.036057
 H         -75.413246     -207.483643      -69.335213
 H         -78.423904     -210.451675      -69.675995
 H         -78.998413     -208.820450      -69.906471
 H         -77.180557     -208.540771      -68.407249
 H         -76.348595     -209.976868      -69.117729
