20
 generated by VMD
 C         -28.919262      -73.454666      -19.146763
 N         -29.605999      -74.246750      -18.622629
 H         -25.261908      -72.810219      -18.937347
 H         -28.416006      -72.764923      -19.794466
 C         -25.550434      -72.777802      -19.942350
 C         -24.925621      -73.809822      -20.752619
 C         -25.751266      -71.374237      -20.377445
 C         -25.452734      -73.851616      -22.114925
 C         -26.295832      -71.351425      -21.850964
 C         -25.624506      -72.409737      -22.721228
 H         -25.073364      -74.770348      -20.332243
 H         -23.777687      -73.784943      -20.751768
 H         -26.368219      -70.773163      -19.708822
 H         -24.763136      -70.853912      -20.418371
 H         -26.339172      -74.474213      -22.142633
 H         -24.725002      -74.471703      -22.642591
 H         -26.072639      -70.429733      -22.251747
 H         -27.358175      -71.411819      -21.821930
 H         -26.038731      -72.322105      -23.711599
 H         -24.472792      -72.167038      -22.801653
