20
 generated by VMD
 C         -69.059669     -187.346344      -67.832542
 N         -67.916939     -187.414993      -67.603424
 H         -68.103577     -187.310104      -63.989197
 H         -70.163773     -187.238602      -67.878212
 C         -69.073227     -187.430008      -63.557945
 C         -69.049713     -187.908371      -62.194515
 C         -70.378670     -186.931595      -64.029396
 C         -70.243759     -188.746460      -61.737770
 C         -71.605469     -187.753174      -63.757622
 C         -71.621185     -188.293900      -62.241165
 H         -69.007874     -187.125183      -61.556988
 H         -68.110725     -188.401596      -62.201378
 H         -70.674103     -185.991226      -63.501942
 H         -70.309921     -186.645813      -65.066856
 H         -70.274193     -188.720993      -60.672802
 H         -70.111015     -189.827805      -62.060440
 H         -71.503220     -188.625351      -64.373772
 H         -72.488358     -187.155594      -63.975399
 H         -71.920074     -187.428482      -61.543163
 H         -72.437958     -189.140671      -62.357487
