20
 generated by VMD
 C         -68.238831     -193.613068      -65.148849
 N         -68.319435     -194.742020      -65.329758
 H         -70.839676     -192.479309      -67.690567
 H         -68.435043     -192.589447      -65.060875
 C         -71.623894     -192.377441      -66.933235
 C         -71.846062     -191.042313      -66.357361
 C         -72.688942     -193.468597      -66.801552
 C         -73.318222     -190.771957      -66.128433
 C         -73.518501     -193.261337      -65.422768
 C         -74.073196     -191.877792      -65.372253
 H         -71.659569     -190.136581      -67.074547
 H         -71.362427     -190.899734      -65.459274
 H         -73.296608     -193.382874      -67.774704
 H         -72.137100     -194.424988      -66.668663
 H         -73.882660     -190.586807      -67.061417
 H         -73.496246     -189.827332      -65.562584
 H         -72.964249     -193.514832      -64.514282
 H         -74.329033     -194.015701      -65.516617
 H         -75.160469     -191.936935      -65.676834
 H         -74.038895     -191.544861      -64.383308
