20
 generated by VMD
 C         -39.709618     -105.443916      -37.286106
 N         -40.187584     -104.449577      -36.954304
 H         -39.427425     -108.325150      -35.367443
 H         -39.357597     -106.489220      -37.388462
 C         -39.573090     -108.668343      -34.353107
 C         -38.448616     -108.196808      -33.482845
 C         -40.505100     -109.644318      -33.912888
 C         -38.794498     -108.143608      -31.990982
 C         -40.916946     -109.532173      -32.419216
 C         -39.739944     -109.331932      -31.532944
 H         -38.223351     -107.131760      -33.819141
 H         -37.540646     -108.788200      -33.625710
 H         -41.319592     -109.458755      -34.587517
 H         -40.152096     -110.629288      -34.119751
 H         -39.446239     -107.333618      -31.922701
 H         -38.019165     -108.084953      -31.255327
 H         -41.610863     -110.336014      -31.944164
 H         -41.541317     -108.607925      -32.272854
 H         -40.092709     -109.065933      -30.450911
 H         -39.213455     -110.209793      -31.400187
