20
 generated by VMD
 C         -21.536272      -65.540863      -17.130852
 N         -20.817350      -65.857979      -16.331264
 H         -23.968540      -63.664722      -17.949396
 H         -22.019436      -64.881065      -17.889837
 C         -24.386360      -64.704079      -18.209251
 C         -24.554092      -65.113083      -19.676590
 C         -25.186918      -65.597527      -17.348480
 C         -24.294199      -66.621536      -19.780369
 C         -24.868176      -67.013947      -17.428341
 C         -25.170944      -67.444031      -18.878223
 H         -23.878746      -64.756172      -20.364820
 H         -25.563583      -64.814941      -19.975771
 H         -24.941341      -65.275932      -16.246593
 H         -26.299971      -65.339439      -17.449957
 H         -23.260931      -67.005478      -19.541210
 H         -24.547483      -66.944267      -20.810484
 H         -25.525017      -67.595154      -16.730690
 H         -23.857668      -67.298767      -17.161798
 H         -24.835278      -68.492447      -18.980000
 H         -26.211803      -67.329865      -19.107204
