20
 generated by VMD
 C         -29.403339      -90.191307      -25.114462
 N         -29.041792      -91.292740      -25.350464
 H         -32.308033      -90.918777      -26.701927
 H         -29.574276      -89.090599      -24.810942
 C         -33.024345      -90.743240      -27.525434
 C         -34.400196      -91.476936      -27.512623
 C         -32.960068      -89.772957      -28.612875
 C         -35.627480      -90.550644      -27.405674
 C         -34.056850      -88.709366      -28.359646
 C         -35.491680      -89.266525      -28.108208
 H         -34.441818      -92.301018      -26.789263
 H         -34.421799      -92.088737      -28.527882
 H         -31.938614      -89.354645      -28.633467
 H         -33.014843      -90.229607      -29.615265
 H         -35.671524      -90.409615      -26.282059
 H         -36.566345      -90.965332      -27.755371
 H         -34.055191      -87.980713      -29.199106
 H         -33.856247      -88.100723      -27.460947
 H         -36.148140      -88.521980      -27.701126
 H         -35.922047      -89.176140      -29.091059
