20
 generated by VMD
 C         -69.101898     -180.746078      -62.533100
 N         -70.073997     -180.309692      -62.129219
 H         -66.636917     -181.159958      -59.440361
 H         -68.168877     -181.215210      -62.904251
 C         -66.381897     -180.174713      -59.945805
 C         -65.152786     -180.283371      -60.793606
 C         -66.962425     -178.886765      -59.514633
 C         -64.824326     -179.083359      -61.546867
 C         -66.522011     -177.702591      -60.246883
 C         -65.011154     -177.782806      -60.736557
 H         -65.035545     -181.241119      -61.403534
 H         -64.323235     -180.459518      -59.961952
 H         -68.066719     -179.029053      -59.540539
 H         -66.753311     -178.623932      -58.494701
 H         -65.443298     -178.988602      -62.507797
 H         -63.735435     -179.051132      -61.762424
 H         -66.743851     -176.763351      -59.720234
 H         -67.166397     -177.522247      -61.122059
 H         -64.995781     -176.871918      -61.328442
 H         -64.421135     -177.419113      -59.824142
