20
 generated by VMD
 C         -57.867989     -168.299042      -55.103176
 N         -56.732647     -168.543823      -54.867535
 H         -61.661964     -167.286850      -55.282475
 H         -58.913204     -168.004196      -55.157719
 C         -62.340416     -166.921631      -56.001831
 C         -62.620911     -167.544952      -57.369251
 C         -63.021149     -165.710083      -55.575089
 C         -64.161362     -167.461029      -57.677448
 C         -64.600288     -165.675842      -55.915401
 C         -64.807274     -166.082001      -57.477940
 H         -62.342831     -168.511383      -57.329491
 H         -61.834545     -167.049591      -58.058372
 H         -62.959789     -165.685104      -54.557125
 H         -62.442150     -164.886124      -56.060352
 H         -64.604347     -168.263519      -57.130985
 H         -64.214920     -167.711166      -58.692059
 H         -65.049477     -164.618744      -55.876499
 H         -65.312660     -166.404739      -55.468391
 H         -65.937721     -166.034729      -57.731117
 H         -64.284996     -165.329697      -58.156216
