20
 generated by VMD
 C         -58.555370     -160.063583      -57.001804
 N         -58.523426     -159.924179      -58.180027
 H         -58.775021     -162.375320      -54.964092
 H         -58.598690     -160.251022      -55.936138
 C         -59.543423     -162.495148      -54.220707
 C         -59.227360     -162.610123      -52.764004
 C         -60.964073     -162.782608      -54.593319
 C         -60.282341     -162.122635      -51.865223
 C         -61.866417     -161.974182      -53.749027
 C         -61.668346     -162.435944      -52.292049
 H         -58.318623     -161.967911      -52.619682
 H         -59.036610     -163.632523      -52.549934
 H         -61.071278     -162.447495      -55.677856
 H         -61.232014     -163.817062      -54.717781
 H         -60.068672     -161.057739      -51.874802
 H         -59.962631     -162.493149      -50.799004
 H         -62.944866     -162.246597      -53.909512
 H         -61.693264     -160.815903      -53.757267
 H         -62.391987     -161.916992      -51.584946
 H         -61.854481     -163.494232      -52.299419
