20
 generated by VMD
 C         -29.332394      -90.302368      -25.045315
 N         -29.036983      -91.396446      -25.288967
 H         -32.465611      -91.006577      -26.806765
 H         -29.746452      -89.355461      -24.903955
 C         -33.160522      -90.733170      -27.607670
 C         -34.403561      -91.569725      -27.510710
 C         -33.071529      -89.733047      -28.678833
 C         -35.538094      -90.608124      -27.329981
 C         -34.107071      -88.638351      -28.311514
 C         -35.475216      -89.370155      -28.348392
 H         -34.313232      -92.342346      -26.724964
 H         -34.483337      -92.230278      -28.497868
 H         -32.049442      -89.341072      -28.745224
 H         -33.167171      -90.193680      -29.668407
 H         -35.616070      -90.157333      -26.264868
 H         -36.495609      -91.051178      -27.570591
 H         -34.003223      -87.880424      -29.100849
 H         -33.981495      -88.104263      -27.329069
 H         -36.202938      -88.650299      -28.019857
 H         -35.861511      -89.458061      -29.366297
