20
 generated by VMD
 C         -28.314245      -84.660126      -26.183750
 N         -28.170286      -83.960533      -27.129541
 H         -31.221527      -84.592209      -26.161098
 H         -28.498774      -85.262650      -25.370602
 C         -31.571417      -85.524338      -25.755798
 C         -31.484638      -85.725876      -24.344378
 C         -31.907244      -86.549065      -26.667097
 C         -32.907970      -86.109901      -23.973497
 C         -33.230854      -87.176537      -26.338600
 C         -33.406437      -87.344688      -24.762714
 H         -31.136255      -84.836624      -23.838818
 H         -30.891359      -86.653587      -24.157032
 H         -31.841410      -86.132484      -27.659664
 H         -31.108162      -87.288139      -26.662476
 H         -33.633488      -85.239624      -24.109047
 H         -32.755318      -86.350952      -22.954531
 H         -33.245865      -88.176376      -26.798702
 H         -34.239670      -86.699242      -26.549089
 H         -34.524399      -87.647446      -24.666203
 H         -32.796715      -88.263847      -24.398981
