20
 generated by VMD
 C         -49.850979     -142.189651      -45.147755
 N         -49.035484     -143.020538      -45.340561
 H         -52.008606     -139.002319      -45.959816
 H         -50.614464     -141.398697      -45.088112
 C         -52.415321     -140.007126      -46.334385
 C         -52.402328     -140.157318      -47.936977
 C         -53.616726     -140.372025      -45.628517
 C         -52.893845     -141.597473      -48.274616
 C         -54.215076     -141.728622      -46.161892
 C         -54.218006     -141.918060      -47.679543
 H         -51.455185     -139.941879      -48.447685
 H         -53.145493     -139.359207      -48.242584
 H         -53.499153     -140.485809      -44.542587
 H         -54.380047     -139.502045      -45.559834
 H         -52.088970     -142.290985      -47.885082
 H         -52.982113     -141.867401      -49.394115
 H         -55.154175     -141.898193      -45.711544
 H         -53.591255     -142.531387      -45.839031
 H         -54.608978     -142.932159      -47.942917
 H         -54.967560     -141.230194      -48.153351
