20
 generated by VMD
 C         -79.380531     -206.079254      -74.769241
 N         -79.440758     -206.593033      -73.688347
 H         -78.716148     -206.620773      -71.087318
 H         -79.624718     -205.738266      -75.718246
 C         -77.690910     -206.584244      -70.626045
 C         -76.680450     -205.668106      -71.264977
 C         -77.361992     -207.763916      -69.806099
 C         -75.388412     -205.679459      -70.520561
 C         -75.856956     -207.702545      -69.232788
 C         -74.784882     -207.012924      -70.056633
 H         -77.222656     -204.657043      -71.489273
 H         -76.367958     -206.067963      -72.254539
 H         -78.035416     -207.859375      -68.996216
 H         -77.341629     -208.709229      -70.366882
 H         -75.332962     -204.915848      -69.735703
 H         -74.632874     -205.374634      -71.305061
 H         -75.616928     -208.810699      -69.181419
 H         -75.863678     -207.388992      -68.171333
 H         -73.873703     -207.127609      -69.460686
 H         -74.483513     -207.591415      -70.943222
