20
 generated by VMD
 C          -9.153854      -23.889454        2.309658
 N          -8.783244      -24.927607        2.525929
 H          -8.093919      -23.390774       -0.942250
 H          -9.005241      -22.662209       -2.261837
 C          -7.991933      -22.995123       -1.970888
 C          -7.648161      -24.154392       -2.980119
 C          -7.086893      -21.791101       -2.131031
 C          -7.478916      -23.662817       -4.455289
 C          -6.938739      -21.350943       -3.568800
 C          -6.526558      -22.465057       -4.508045
 H          -8.322779      -25.013718       -2.789166
 H          -6.716118      -24.591772       -2.729399
 H          -7.452537      -20.938030       -1.499715
 H          -6.117534      -22.175303       -1.819939
 H          -8.384991      -23.236483       -4.914816
 H          -7.134418      -24.431202       -5.139435
 H          -6.183424      -20.530548       -3.685757
 H          -7.944661      -20.978401       -3.828429
 H          -6.509728      -22.125694       -5.564182
 H          -5.548312      -22.775133       -4.158519
