20
 generated by VMD
 C          -1.591509       -9.389859        1.069028
 N          -1.777985       -9.792392        0.076650
 H          -2.789694      -12.003823        1.783016
 H          -3.737512      -12.188658        3.293944
 C          -3.566381      -12.591571        2.294236
 C          -2.988339      -13.982691        2.496007
 C          -4.887004      -12.703845        1.580161
 C          -3.928872      -14.970464        3.248007
 C          -5.896040      -13.616656        2.302985
 C          -5.252794      -15.002615        2.575070
 H          -2.072179      -14.019206        3.110092
 H          -2.780148      -14.581687        1.581195
 H          -5.332025      -11.685966        1.469764
 H          -4.744764      -13.072139        0.490972
 H          -3.946208      -14.736091        4.383385
 H          -3.395422      -15.947556        3.141908
 H          -6.704735      -13.807817        1.631885
 H          -6.277097      -13.165486        3.205873
 H          -5.937578      -15.556558        3.238982
 H          -5.206457      -15.531424        1.637095
