20
 generated by VMD
 C         -68.127663     -179.622574      -58.906643
 N         -68.124107     -179.862045      -60.026600
 H         -67.382278     -177.216156      -59.983932
 H         -68.038345     -179.409958      -57.853230
 C         -66.416756     -176.716888      -59.957821
 C         -66.067093     -176.361984      -61.386055
 C         -65.356148     -177.291061      -59.173843
 C         -65.064613     -175.215256      -61.389240
 C         -64.210739     -176.148132      -59.123676
 C         -63.812843     -175.543793      -60.462666
 H         -66.928162     -175.990921      -62.004856
 H         -65.703224     -177.228729      -62.016624
 H         -65.657814     -177.750656      -58.207962
 H         -64.909645     -178.158173      -59.797974
 H         -65.392754     -174.279083      -61.072014
 H         -64.714363     -175.050171      -62.469433
 H         -63.327477     -176.620453      -58.585857
 H         -64.696304     -175.336685      -58.542908
 H         -63.202641     -174.614563      -60.282173
 H         -63.104565     -176.078506      -61.168381
