20
 generated by VMD
 C         -50.002335     -144.117493      -44.369141
 N         -49.298958     -143.734238      -45.152676
 H         -52.204330     -141.776184      -45.692776
 H         -50.591469     -144.318024      -43.532795
 C         -52.935993     -141.832947      -46.506714
 C         -52.284412     -141.940659      -47.905109
 C         -54.333935     -141.422318      -46.339401
 C         -53.238087     -142.432953      -48.987690
 C         -55.171326     -141.976974      -47.468643
 C         -54.553848     -141.714737      -48.795975
 H         -51.450047     -142.713898      -47.829231
 H         -51.847797     -140.904449      -48.184639
 H         -54.629864     -141.728394      -45.289093
 H         -54.207462     -140.360123      -46.395348
 H         -53.329063     -143.492874      -48.996449
 H         -52.895187     -142.143616      -49.952900
 H         -56.204639     -141.625732      -47.499962
 H         -55.301128     -143.063385      -47.262829
 H         -55.258968     -141.958252      -49.560959
 H         -54.318787     -140.690826      -48.956055
