20
 generated by VMD
 C         -13.087352      -31.133242       -8.226830
 N         -12.640861      -30.115118       -8.443603
 H         -11.479846      -32.841026       -7.103650
 H         -12.099560      -32.380043       -5.545342
 C         -11.572614      -33.189003       -6.026755
 C         -10.096910      -33.234882       -5.441046
 C         -12.219604      -34.520489       -5.877800
 C         -10.030107      -33.809124       -4.021352
 C         -12.116369      -35.060368       -4.471647
 C         -10.668804      -35.168072       -4.003069
 H          -9.604979      -32.202438       -5.479373
 H          -9.444613      -33.772038       -6.095251
 H         -13.268706      -34.377457       -6.205368
 H         -11.827807      -35.232300       -6.639925
 H         -10.327062      -33.222927       -3.172831
 H          -8.976771      -33.967274       -3.720331
 H         -12.543332      -36.057034       -4.432691
 H         -12.746604      -34.535152       -3.715357
 H         -10.725410      -35.554722       -3.003327
 H         -10.002922      -35.862888       -4.559473
