20
 generated by VMD
 C         -70.494225     -196.627258      -65.547409
 N         -69.434715     -196.770294      -66.037598
 H         -73.453316     -195.728851      -65.072929
 H         -71.533096     -196.738174      -65.214218
 C         -73.462318     -195.161835      -65.974716
 C         -72.998360     -193.748215      -65.912888
 C         -74.547905     -195.510635      -66.967873
 C         -72.363960     -193.457474      -67.391808
 C         -74.027817     -195.079666      -68.328995
 C         -73.568932     -193.686676      -68.368813
 H         -72.161026     -193.681335      -65.108757
 H         -73.813240     -193.115173      -65.777008
 H         -74.790642     -196.551498      -66.971649
 H         -75.461082     -194.962967      -66.665070
 H         -71.553436     -194.131378      -67.614693
 H         -72.062355     -192.411636      -67.392494
 H         -74.807747     -195.187683      -69.042488
 H         -73.184639     -195.795364      -68.572868
 H         -73.209152     -193.397415      -69.286484
 H         -74.361519     -192.847626      -68.036591
