20
 generated by VMD
 C         -50.000477     -128.571136      -43.339252
 N         -50.674244     -129.164215      -44.034214
 H         -48.758179     -128.429443      -40.044018
 H         -49.254433     -128.048004      -42.767693
 C         -47.704720     -128.185410      -40.283573
 C         -46.786922     -129.264526      -39.975628
 C         -47.400272     -127.005455      -40.978653
 C         -45.763538     -129.521011      -41.047596
 C         -46.376755     -127.193481      -42.076900
 C         -45.240589     -128.167648      -41.690933
 H         -47.358540     -130.265305      -39.864410
 H         -46.283978     -129.020111      -39.068771
 H         -48.292221     -126.549965      -41.403366
 H         -46.910625     -126.191162      -40.349854
 H         -46.185688     -130.081070      -41.881409
 H         -44.897675     -130.068604      -40.714088
 H         -45.917908     -126.267654      -42.442928
 H         -46.916279     -127.670563      -42.890598
 H         -44.671463     -128.470520      -42.572945
 H         -44.432930     -127.830963      -40.960133
