20
 generated by VMD
 C         -75.566254     -202.161331      -66.232712
 N         -76.422134     -202.692657      -65.649132
 H         -75.837250     -200.186584      -68.942322
 H         -74.842407     -201.638199      -66.902679
 C         -75.008278     -199.544357      -69.105362
 C         -74.841461     -198.158218      -68.539597
 C         -73.905807     -199.971542      -70.065170
 C         -73.353859     -197.749481      -68.387642
 C         -73.375465     -198.643463      -70.631950
 C         -72.603737     -197.746368      -69.637459
 H         -75.480850     -198.103378      -67.580978
 H         -75.325256     -197.439514      -69.258385
 H         -73.090729     -200.507233      -69.599617
 H         -74.399818     -200.642807      -70.754593
 H         -72.902954     -198.327713      -67.574806
 H         -73.366966     -196.773010      -67.823570
 H         -74.286263     -198.098511      -71.008522
 H         -72.599648     -198.686493      -71.525497
 H         -71.541466     -198.102524      -69.459023
 H         -72.493027     -196.700500      -70.014900
