20
 generated by VMD
 C         -57.843754     -165.569519      -56.382221
 N         -57.251827     -164.904205      -57.100742
 H         -60.238983     -164.685486      -54.178032
 H         -58.525116     -166.135056      -55.738033
 C         -61.178913     -164.877594      -54.685642
 C         -61.898335     -166.206009      -54.329685
 C         -61.839626     -163.927994      -55.665001
 C         -63.455185     -166.235092      -54.639019
 C         -63.398914     -163.997635      -55.800556
 C         -63.707947     -165.485001      -55.945377
 H         -61.757034     -166.312454      -53.304329
 H         -61.389271     -166.999847      -54.840607
 H         -61.491581     -162.970734      -55.297867
 H         -61.337250     -164.149445      -56.570461
 H         -64.137329     -165.815445      -53.918819
 H         -63.762627     -167.233673      -54.746544
 H         -63.824631     -163.249924      -56.500507
 H         -63.824314     -163.566284      -54.821228
 H         -64.739624     -165.638290      -56.306271
 H         -63.000355     -165.803314      -56.777561
