20
 generated by VMD
 C         -74.117561     -201.012558      -65.829239
 N         -73.016350     -200.925476      -66.193405
 H         -76.024887     -198.353867      -67.615700
 H         -75.166664     -201.408676      -65.683907
 C         -75.131241     -198.025360      -68.172264
 C         -74.851379     -196.507538      -67.869179
 C         -74.482239     -198.820114      -69.238457
 C         -73.475266     -196.028275      -68.391060
 C         -73.379501     -198.043564      -69.906624
 C         -72.638985     -197.123016      -68.886284
 H         -74.875244     -196.464554      -66.760216
 H         -75.774689     -196.063675      -68.236450
 H         -74.000359     -199.702927      -68.884254
 H         -75.217125     -199.079346      -69.909554
 H         -73.050293     -195.481155      -67.528954
 H         -73.644753     -195.348236      -69.206001
 H         -73.904343     -197.411133      -70.651657
 H         -72.623985     -198.606049      -70.404022
 H         -72.234337     -197.648514      -67.890976
 H         -71.803062     -196.720139      -69.406754
