20
 generated by VMD
 C         -22.682791      -55.557076      -16.762707
 N         -23.101555      -54.417625      -16.886347
 H         -19.394224      -55.682945      -14.824379
 H         -22.573179      -56.674091      -16.658890
 C         -19.681505      -56.662754      -14.604600
 C         -20.663773      -57.030087      -13.589720
 C         -18.872433      -57.650990      -15.164780
 C         -20.946899      -58.472301      -13.427166
 C         -19.135635      -59.069782      -14.814462
 C         -19.664682      -59.162640      -13.416679
 H         -21.636240      -56.630329      -13.986581
 H         -20.518929      -56.452610      -12.628699
 H         -18.839134      -57.562477      -16.322281
 H         -17.837700      -57.466042      -14.931609
 H         -21.649202      -58.637512      -14.290748
 H         -21.541119      -58.670609      -12.543168
 H         -18.243101      -59.731674      -14.985114
 H         -19.913603      -59.453144      -15.468179
 H         -19.731377      -60.224747      -13.217321
 H         -18.985270      -58.818226      -12.669934
