20
 generated by VMD
 C         -67.827667     -185.861038      -67.063400
 N         -68.612648     -185.416977      -67.760979
 H         -68.528664     -188.224457      -64.480881
 H         -67.000816     -186.295792      -66.450584
 C         -69.286102     -187.883636      -63.720169
 C         -68.989197     -186.581924      -63.212666
 C         -70.695183     -188.410187      -63.584442
 C         -69.377991     -186.492126      -61.688602
 C         -71.213593     -188.390457      -62.211838
 C         -70.863312     -186.971741      -61.523052
 H         -69.564278     -185.879440      -63.881775
 H         -67.905975     -186.346222      -63.355007
 H         -71.344124     -187.894379      -64.332359
 H         -70.703583     -189.400177      -64.056236
 H         -69.360153     -185.388885      -61.430527
 H         -68.660973     -187.051941      -61.099640
 H         -70.574883     -189.222382      -61.659382
 H         -72.276512     -188.725494      -61.970348
 H         -71.626038     -186.382919      -61.891716
 H         -71.085457     -186.930771      -60.454880
