20
 generated by VMD
 C         -50.432751     -131.969025      -47.011791
 N         -49.949432     -132.374527      -48.014412
 H         -48.664249     -131.555862      -43.634171
 H         -50.944244     -131.190735      -46.401348
 C         -48.690182     -132.441971      -43.055611
 C         -49.435764     -133.546951      -43.607620
 C         -48.620533     -132.200317      -41.550430
 C         -49.256470     -134.855759      -42.858593
 C         -48.449844     -133.572861      -40.843243
 C         -49.435177     -134.662689      -41.350777
 H         -48.992775     -133.752579      -44.637276
 H         -50.456596     -133.420990      -43.695801
 H         -47.765362     -131.470123      -41.394558
 H         -49.505966     -131.693909      -41.071541
 H         -48.198624     -135.187057      -42.961140
 H         -49.920418     -135.669006      -43.215889
 H         -48.681488     -133.525558      -39.767185
 H         -47.420490     -133.862473      -40.731701
 H         -49.276150     -135.477066      -40.759510
 H         -50.353134     -134.181061      -41.022377
