20
 generated by VMD
 C         -68.747032     -189.022186      -67.158310
 N         -67.705643     -189.355072      -66.809677
 H         -68.951836     -187.710312      -64.108826
 H         -69.725845     -188.863022      -67.538795
 C         -69.605118     -188.141495      -63.367558
 C         -69.843925     -189.571320      -63.458225
 C         -70.581581     -187.251038      -62.754143
 C         -71.148422     -189.695038      -64.263512
 C         -71.708725     -187.204773      -63.751518
 C         -72.238220     -188.676453      -63.881805
 H         -70.031502     -190.084534      -62.540852
 H         -68.953773     -189.941315      -64.001472
 H         -70.835655     -187.506088      -61.701618
 H         -70.069336     -186.236954      -62.566933
 H         -71.595436     -190.725647      -64.123390
 H         -70.931671     -189.467697      -65.294342
 H         -71.404099     -186.717758      -64.705734
 H         -72.449684     -186.493484      -63.334816
 H         -72.434540     -189.054733      -62.901520
 H         -73.190315     -188.716187      -64.612831
