20
 generated by VMD
 C          -5.863502      -21.136526        1.565071
 N          -5.710139      -21.527441        2.602842
 H          -4.983880      -18.450764       -1.262990
 H          -5.422909      -19.837862       -0.391534
 C          -5.738370      -19.240969       -1.201119
 C          -5.556188      -20.214275       -2.387017
 C          -7.141557      -18.713528       -1.111073
 C          -6.608650      -21.331161       -2.416805
 C          -8.199975      -19.832668       -1.170098
 C          -7.958734      -20.716776       -2.381457
 H          -4.574140      -20.630108       -2.380516
 H          -5.561340      -19.746233       -3.411986
 H          -7.179430      -18.154125       -0.148711
 H          -7.298789      -17.787220       -1.848745
 H          -6.556506      -22.098616       -1.658728
 H          -6.452319      -21.797689       -3.360182
 H          -9.184246      -19.407120       -1.281244
 H          -8.180346      -20.428711       -0.240833
 H          -8.716125      -21.524599       -2.538250
 H          -8.182844      -20.089970       -3.280335
