20
 generated by VMD
 C         -72.929398     -199.389679      -65.590256
 N         -73.902603     -200.019623      -65.586273
 H         -71.236740     -196.816956      -67.197838
 H         -72.030846     -198.922974      -65.876663
 C         -72.228935     -196.586395      -67.612732
 C         -73.162750     -195.522598      -67.059677
 C         -72.457436     -196.933121      -69.098999
 C         -74.265945     -195.200241      -68.033348
 C         -73.831688     -197.392914      -69.308907
 C         -74.836105     -196.367188      -68.725044
 H         -72.515511     -194.626541      -66.657951
 H         -73.709122     -196.091827      -66.267471
 H         -72.212601     -196.066345      -69.710815
 H         -71.792686     -197.717758      -69.366188
 H         -73.828896     -194.512482      -68.738472
 H         -75.080795     -194.578217      -67.603851
 H         -74.040215     -198.366013      -68.765503
 H         -73.917938     -197.587555      -70.347183
 H         -75.448448     -196.013138      -69.457741
 H         -75.372925     -197.061996      -67.978882
