20
 generated by VMD
 C          -7.007018      -23.009108        2.407051
 N          -6.040874      -22.716650        2.883775
 H          -6.130962      -20.871029       -0.188661
 H          -7.770606      -21.384018       -0.525981
 C          -6.858679      -20.957745       -1.030952
 C          -6.143023      -21.920424       -2.000658
 C          -7.202573      -19.594397       -1.657518
 C          -7.039973      -22.117258       -3.248009
 C          -8.150750      -19.840101       -2.883602
 C          -7.495756      -20.807196       -3.915152
 H          -6.078934      -22.878948       -1.548572
 H          -5.165233      -21.441732       -2.322732
 H          -7.713917      -18.990904       -0.884395
 H          -6.353616      -18.891500       -1.880920
 H          -7.912045      -22.752668       -2.948286
 H          -6.508439      -22.789999       -3.966770
 H          -8.450314      -18.821745       -3.274439
 H          -9.161485      -20.215874       -2.591367
 H          -8.179650      -21.009336       -4.774519
 H          -6.533015      -20.333637       -4.311457
