20
 generated by VMD
 C         -40.117985     -105.104080      -37.073860
 N         -39.702168     -104.005005      -37.039352
 H         -40.111549     -108.373268      -35.215885
 H         -40.452583     -106.073288      -36.816326
 C         -39.615475     -108.645340      -34.284405
 C         -38.500023     -108.100166      -33.610233
 C         -40.319702     -109.805656      -33.686909
 C         -38.958279     -107.697205      -32.165398
 C         -40.614777     -109.507698      -32.134537
 C         -39.454403     -108.976517      -31.393137
 H         -38.040955     -107.279343      -34.163754
 H         -37.793751     -108.880806      -33.502445
 H         -41.251183     -110.151283      -34.143574
 H         -39.659176     -110.638786      -33.756035
 H         -39.757286     -106.981270      -32.222317
 H         -38.092148     -107.249992      -31.637835
 H         -40.979122     -110.496735      -31.720737
 H         -41.555305     -108.891708      -31.945959
 H         -39.753700     -108.839958      -30.291695
 H         -38.778519     -109.701813      -31.323580
