20
 generated by VMD
 C         -30.420465      -92.891090      -25.895994
 N         -29.812855      -92.487473      -24.968313
 H         -32.603119      -89.743248      -26.564400
 H         -30.909864      -93.405029      -26.749376
 C         -33.493885      -89.860680      -27.254259
 C         -34.031269      -91.290222      -27.076878
 C         -33.396648      -89.278526      -28.569372
 C         -35.287540      -91.581429      -27.810631
 C         -34.698032      -89.500107      -29.319387
 C         -35.226337      -90.884422      -29.255922
 H         -34.090298      -91.468979      -25.962507
 H         -33.122593      -92.001617      -27.307076
 H         -33.088028      -88.241325      -28.518551
 H         -32.589600      -89.806450      -29.118746
 H         -36.226383      -91.204216      -27.349987
 H         -35.390369      -92.683243      -27.851116
 H         -34.776047      -89.229568      -30.383837
 H         -35.509014      -88.884834      -28.873644
 H         -36.149960      -91.008812      -29.883509
 H         -34.540272      -91.654991      -29.720274
