20
 generated by VMD
 C         -66.827492     -191.162140      -66.301529
 N         -67.714508     -190.620621      -66.839600
 H         -70.531883     -190.124130      -66.570305
 H         -66.143570     -191.843048      -65.695618
 C         -71.167595     -190.068771      -65.722488
 C         -72.157997     -191.180359      -65.550537
 C         -70.631073     -189.432480      -64.510147
 C         -73.356049     -190.764389      -64.534546
 C         -71.893112     -188.854034      -63.777790
 C         -72.845261     -190.030197      -63.343239
 H         -71.623306     -192.136093      -65.061905
 H         -72.657379     -191.451523      -66.485992
 H         -70.141037     -190.095337      -63.733582
 H         -70.057823     -188.506134      -64.717949
 H         -73.915314     -191.645523      -64.252800
 H         -74.034653     -190.116165      -65.048096
 H         -72.486870     -188.271851      -64.550713
 H         -71.729515     -188.061157      -62.979118
 H         -72.217224     -190.728134      -62.680283
 H         -73.626076     -189.628479      -62.704338
