20
 generated by VMD
 C          -1.763619      -16.559862        2.466395
 N          -2.013506      -15.473469        2.561631
 H          -4.151319      -15.986092       -0.050273
 H          -4.656457      -17.056541       -1.259090
 C          -5.009148      -16.565842       -0.364308
 C          -6.261733      -15.821966       -0.760246
 C          -5.285811      -17.714909        0.612797
 C          -7.459216      -16.764713       -1.163113
 C          -6.495618      -18.567297        0.364343
 C          -7.738094      -17.735737       -0.011825
 H          -6.112868      -15.091139       -1.518225
 H          -6.567558      -15.269596        0.149018
 H          -4.396937      -18.282036        0.826321
 H          -5.440962      -17.220749        1.584558
 H          -7.200504      -17.325914       -2.108660
 H          -8.335923      -16.069004       -1.340694
 H          -6.767041      -19.138197        1.281509
 H          -6.432401      -19.277981       -0.472260
 H          -8.478947      -18.458239       -0.358747
 H          -8.070520      -17.309065        0.912908
