20
 generated by VMD
 C         -66.917419     -191.321976      -66.256210
 N         -67.614304     -190.673050      -66.955055
 H         -70.471474     -190.210846      -66.594376
 H         -66.155090     -191.701218      -65.552589
 C         -71.135895     -190.122894      -65.694801
 C         -72.199745     -191.207336      -65.514542
 C         -70.711426     -189.267151      -64.509338
 C         -73.315269     -190.811371      -64.686172
 C         -71.946457     -188.930511      -63.676018
 C         -72.868675     -190.084320      -63.377815
 H         -71.804230     -192.056046      -65.081535
 H         -72.536415     -191.547302      -66.507828
 H         -70.054909     -189.904572      -63.982288
 H         -70.264999     -188.367920      -64.945969
 H         -73.857475     -191.733185      -64.414192
 H         -73.887222     -190.056976      -65.301811
 H         -72.602829     -188.144302      -64.048386
 H         -71.609444     -188.674805      -62.708229
 H         -72.493507     -190.818573      -62.690468
 H         -73.706558     -189.520737      -62.814346
