20
 generated by VMD
 C         -40.984734     -102.617378      -34.909801
 N         -41.505051     -102.836464      -35.928715
 H         -39.542843     -104.230125      -32.110561
 H         -40.280037     -102.507896      -34.077477
 C         -38.780720     -104.786118      -32.504158
 C         -37.570175     -104.250145      -32.961491
 C         -38.726639     -106.055321      -31.795565
 C         -36.461651     -104.236610      -31.886475
 C         -37.645546     -106.018394      -30.575159
 C         -36.247997     -105.556572      -31.085085
 H         -37.578831     -103.172127      -33.240940
 H         -37.170177     -104.683540      -33.901592
 H         -39.716320     -106.400772      -31.258398
 H         -38.572784     -106.845863      -32.496296
 H         -36.539726     -103.348305      -31.194592
 H         -35.490986     -104.093224      -32.429668
 H         -37.560207     -107.036240      -30.114485
 H         -38.026680     -105.360268      -29.781618
 H         -35.499447     -105.441109      -30.323006
 H         -35.870708     -106.337387      -31.864023
