20
 generated by VMD
 C         -67.661201     -177.948257      -57.692551
 N         -67.282822     -178.748642      -56.959816
 H         -64.670967     -176.256668      -58.969280
 H         -68.040146     -177.193283      -58.401081
 C         -64.602135     -175.430862      -59.630936
 C         -65.793190     -174.549500      -59.669521
 C         -63.210251     -175.060226      -60.258762
 C         -65.342308     -173.118958      -59.603855
 C         -62.943653     -173.543701      -60.194931
 C         -64.173294     -172.648346      -60.404102
 H         -66.613884     -174.746964      -58.916359
 H         -66.301407     -174.808487      -60.579540
 H         -62.628841     -175.604507      -59.537197
 H         -63.174942     -175.633682      -61.164379
 H         -65.214142     -172.792358      -58.571579
 H         -66.227356     -172.496246      -59.824322
 H         -62.147095     -173.330292      -60.889481
 H         -62.551640     -173.052765      -59.233955
 H         -64.228287     -171.568268      -60.275433
 H         -64.461296     -172.783463      -61.410305
