20
 generated by VMD
 C         -49.596600     -127.740204      -38.972389
 N         -49.888470     -126.754356      -38.440083
 H         -46.925594     -125.659424      -41.066235
 H         -49.433392     -128.656540      -39.496136
 C         -46.024261     -124.997955      -40.885998
 C         -44.859325     -125.481255      -40.237106
 C         -46.391197     -123.523766      -40.775257
 C         -43.649036     -124.852303      -40.939842
 C         -45.238579     -122.781593      -41.545238
 C         -43.780960     -123.251968      -40.983051
 H         -44.730186     -126.569473      -40.405228
 H         -44.883545     -125.362450      -39.225155
 H         -47.208752     -123.242668      -41.421196
 H         -46.574020     -123.179291      -39.692703
 H         -43.604141     -125.274269      -41.926079
 H         -42.750343     -125.176178      -40.444084
 H         -45.409870     -121.601303      -41.392101
 H         -45.117870     -123.012711      -42.654678
 H         -43.007069     -122.937195      -41.662788
 H         -43.452057     -122.851959      -39.974255
