20
 generated by VMD
 C         -38.932789     -111.480408      -36.562515
 N         -38.368877     -110.480865      -36.564754
 H         -40.113750     -113.981064      -34.973297
 H         -39.528595     -112.322350      -36.264103
 C         -41.100231     -113.728897      -35.261181
 C         -41.572834     -113.898987      -36.704288
 C         -41.832268     -112.772644      -34.244869
 C         -43.141613     -114.073273      -36.695702
 C         -43.384178     -112.835861      -34.440453
 C         -43.923038     -112.994469      -35.838455
 H         -41.123550     -114.794746      -37.087559
 H         -41.318832     -113.177353      -37.504044
 H         -41.730556     -113.221817      -33.232071
 H         -41.520260     -111.671852      -34.318344
 H         -43.468849     -115.020660      -36.237740
 H         -43.450279     -114.049850      -37.824585
 H         -43.783302     -111.922180      -34.064030
 H         -43.599468     -113.735077      -33.883492
 H         -44.934101     -113.504532      -35.927937
 H         -43.974060     -112.130402      -36.435307
