20
 generated by VMD
 C         -10.879025      -33.490269       -9.472441
 N         -10.741261      -32.660450       -8.737886
 H         -12.117142      -35.932640       -8.016360
 H         -12.428524      -35.483418       -6.306427
 C         -12.518739      -36.286194       -7.060976
 C         -11.787541      -37.463444       -6.393747
 C         -13.994990      -36.461193       -7.177358
 C         -12.455072      -38.007687       -5.131668
 C         -14.664069      -37.193726       -5.985488
 C         -13.874295      -38.407825       -5.558084
 H         -10.772869      -37.125454       -6.226027
 H         -11.760363      -38.243004       -7.163668
 H         -14.530107      -35.600502       -7.491948
 H         -14.214316      -37.179657       -8.018452
 H         -12.478917      -37.235222       -4.349345
 H         -11.952381      -38.969269       -4.744118
 H         -15.630630      -37.475632       -6.279384
 H         -14.852156      -36.502178       -5.132887
 H         -14.377732      -38.969154       -4.769571
 H         -13.785006      -39.172237       -6.338147
