20
 generated by VMD
 C         -69.302452     -185.055389      -66.624290
 N         -69.275009     -185.108459      -67.788795
 H         -69.530197     -183.142975      -63.268337
 H         -69.332626     -184.954941      -65.493767
 C         -69.266060     -183.217133      -62.221405
 C         -69.684052     -184.441040      -61.490913
 C         -68.151184     -182.548920      -61.586887
 C         -68.659386     -185.458878      -61.019852
 C         -67.005707     -183.395966      -61.240932
 C         -67.400902     -184.650864      -60.516556
 H         -70.409241     -184.985703      -62.060791
 H         -70.143356     -184.183411      -60.485474
 H         -67.931793     -181.745148      -62.303272
 H         -68.396736     -182.014603      -60.749649
 H         -68.251198     -186.154907      -61.839134
 H         -68.961029     -186.175980      -60.193317
 H         -66.150032     -182.808807      -60.824726
 H         -66.493584     -183.666870      -62.181610
 H         -66.627052     -185.293930      -60.562027
 H         -67.524628     -184.487045      -59.422737
