20
 generated by VMD
 C         -56.661121     -150.008194      -47.867233
 N         -57.599621     -150.518646      -48.289131
 H         -53.426052     -148.602768      -47.435703
 H         -55.791912     -149.707169      -47.361252
 C         -53.968227     -148.419632      -48.336395
 C         -53.288185     -149.092896      -49.506958
 C         -54.798473     -147.213028      -48.556820
 C         -54.246304     -148.996796      -50.756042
 C         -55.570282     -147.021667      -49.894218
 C         -54.799141     -147.645218      -51.117718
 H         -53.109898     -150.072144      -49.113731
 H         -52.327171     -148.562988      -49.785000
 H         -55.637413     -147.290146      -47.871323
 H         -54.212200     -146.274826      -48.211960
 H         -55.047630     -149.721725      -50.871830
 H         -53.468006     -149.235413      -51.528027
 H         -55.732471     -145.964050      -49.977890
 H         -56.555206     -147.559265      -49.896999
 H         -55.437630     -147.631836      -51.994305
 H         -53.979420     -146.933807      -51.318913
