20
 generated by VMD
 C         -31.768032      -76.501328      -24.642433
 N         -31.800140      -76.912079      -25.750402
 H         -29.430130      -77.226089      -22.551342
 H         -31.538197      -76.087860      -23.567238
 C         -28.548565      -77.802315      -22.199509
 C         -27.518383      -78.051086      -23.239031
 C         -28.623779      -78.601387      -21.044888
 C         -26.138018      -78.327072      -22.683489
 C         -27.213020      -79.019890      -20.476019
 C         -26.196495      -79.329788      -21.555254
 H         -27.512146      -77.337387      -23.952799
 H         -27.836668      -78.932053      -23.693613
 H         -29.341331      -78.092255      -20.316315
 H         -29.248596      -79.425148      -21.329453
 H         -25.823261      -77.388168      -22.272713
 H         -25.437759      -78.721176      -23.443426
 H         -27.346869      -79.921883      -19.846069
 H         -26.802629      -78.277954      -19.897629
 H         -25.171820      -79.416809      -21.161467
 H         -26.364988      -80.281960      -21.965088
