20
 generated by VMD
 C         -61.351295     -154.732178      -53.840572
 N         -61.808243     -155.132324      -52.836441
 H         -58.004028     -154.933319      -52.370571
 H         -61.019356     -154.342407      -54.766064
 C         -57.120087     -154.659027      -51.797485
 C         -57.268768     -154.207550      -50.382259
 C         -55.883644     -154.256241      -52.523731
 C         -56.133881     -154.700806      -49.435078
 C         -54.753765     -154.613480      -51.614098
 C         -54.779236     -154.181641      -50.162003
 H         -58.231853     -154.451859      -49.881271
 H         -57.446411     -153.147614      -50.411114
 H         -55.834351     -154.739212      -53.519718
 H         -55.863716     -153.183441      -52.641716
 H         -56.300602     -155.706726      -49.285782
 H         -56.148212     -154.238403      -48.445072
 H         -53.775051     -154.201584      -51.994835
 H         -54.726349     -155.655045      -51.666164
 H         -53.971176     -154.618835      -49.462376
 H         -54.572723     -153.102539      -50.012280
