20
 generated by VMD
 C         -37.109509      -98.268234      -25.779270
 N         -36.283424      -98.447128      -26.572292
 H         -35.996090      -95.967346      -28.507252
 H         -37.704914      -98.152290      -24.980152
 C         -35.633347      -95.430092      -29.392406
 C         -35.702072      -96.441467      -30.559036
 C         -34.387482      -94.632179      -29.144218
 C         -35.182701      -95.629318      -31.811680
 C         -33.799675      -94.064735      -30.434444
 C         -33.793217      -95.088852      -31.640581
 H         -36.775566      -96.685410      -30.669067
 H         -35.087219      -97.347145      -30.357912
 H         -34.472996      -93.816261      -28.467836
 H         -33.613956      -95.203026      -28.654135
 H         -35.771759      -94.871719      -32.240105
 H         -35.061409      -96.400101      -32.596622
 H         -32.887749      -93.599304      -30.173431
 H         -34.573246      -93.268517      -30.632963
 H         -33.281246      -94.598572      -32.373737
 H         -32.996277      -95.916069      -31.372425
