20
 generated by VMD
 C         -13.932000      -28.756926       -7.175420
 N         -13.267333      -28.913006       -8.054061
 H         -11.670213      -30.312735       -4.809960
 H         -10.198064      -29.924234       -4.043086
 C         -10.772912      -30.763121       -4.374754
 C          -9.997252      -31.516918       -5.494297
 C         -11.020661      -31.766005       -3.236335
 C          -8.628772      -32.018387       -5.045441
 C          -9.624017      -32.197495       -2.717456
 C          -8.833814      -32.880386       -3.814331
 H          -9.858795      -30.878948       -6.330102
 H         -10.571354      -32.453823       -5.861118
 H         -11.679790      -31.346191       -2.442938
 H         -11.531844      -32.673981       -3.593932
 H          -7.939507      -31.265266       -4.726615
 H          -8.174363      -32.595978       -5.826894
 H          -9.681927      -32.881863       -1.811162
 H          -9.203909      -31.276436       -2.370962
 H          -7.902417      -33.315151       -3.492374
 H          -9.412335      -33.680019       -4.142449
