20
 generated by VMD
 C         -78.966164     -207.380127      -75.297569
 N         -79.899544     -206.964233      -75.793640
 H         -77.824997     -209.287201      -73.366661
 H         -78.048576     -207.524994      -74.877731
 C         -77.709854     -209.079376      -72.319695
 C         -76.372696     -208.484329      -71.786049
 C         -78.272675     -210.256485      -71.467575
 C         -76.552788     -208.136978      -70.315575
 C         -78.153976     -209.958557      -69.966759
 C         -76.853012     -209.453430      -69.506371
 H         -76.318581     -207.605927      -72.433189
 H         -75.531250     -209.102814      -72.018578
 H         -79.326630     -210.214371      -71.703308
 H         -78.004318     -211.324051      -71.530983
 H         -77.448372     -207.431564      -70.210564
 H         -75.682526     -207.545731      -69.904167
 H         -78.228531     -210.944138      -69.449730
 H         -79.087540     -209.422577      -69.695175
 H         -76.910561     -209.187363      -68.462944
 H         -76.124748     -210.298004      -69.655312
