20
 generated by VMD
 C         -23.615919      -69.221085      -16.602192
 N         -23.885717      -69.911011      -15.716348
 H         -23.937323      -66.397018      -18.977213
 H         -23.586063      -68.640862      -17.608938
 C         -24.413742      -67.158325      -19.453056
 C         -23.866991      -68.017426      -20.651781
 C         -25.936829      -67.260353      -19.317047
 C         -24.570381      -69.426010      -20.796480
 C         -26.464701      -68.691063      -19.385576
 C         -26.132425      -69.403603      -20.690741
 H         -22.754721      -68.118568      -20.451897
 H         -23.919249      -67.301514      -21.590870
 H         -26.297855      -66.889694      -18.340399
 H         -26.285507      -66.608070      -20.142469
 H         -24.060814      -69.980705      -20.037552
 H         -24.277506      -69.906822      -21.726036
 H         -27.484377      -68.697853      -19.175814
 H         -26.004904      -69.267395      -18.648956
 H         -26.421413      -70.469872      -20.804937
 H         -26.582422      -68.780136      -21.490175
