20
 generated by VMD
 C         -12.651091      -28.049547       -4.694544
 N         -13.095002      -27.742287       -5.685809
 H         -11.179164      -30.718473       -3.002455
 H         -11.017458      -29.166195       -3.736361
 C         -10.373013      -30.041485       -3.408620
 C          -9.685508      -30.720245       -4.626462
 C          -9.347387      -29.488937       -2.463996
 C          -8.661115      -29.776939       -5.330136
 C          -8.498775      -28.421280       -3.139928
 C          -7.720287      -29.066845       -4.365283
 H         -10.444367      -31.190563       -5.321422
 H          -9.144489      -31.639023       -4.235998
 H          -9.876431      -29.047865       -1.663746
 H          -8.717776      -30.265486       -2.024821
 H          -9.331410      -29.032093       -5.882574
 H          -8.076240      -30.257507       -6.152476
 H          -7.856575      -27.811535       -2.480105
 H          -9.159522      -27.652094       -3.612406
 H          -7.117145      -28.315414       -4.810624
 H          -7.111023      -29.883198       -3.976732
