20
 generated by VMD
 C         -29.391283      -89.738998      -25.519655
 N         -29.457848      -88.592720      -25.561882
 H         -31.740496      -90.881454      -27.598005
 H         -29.159678      -90.852745      -25.602058
 C         -32.522129      -90.151497      -27.417377
 C         -33.654144      -90.542175      -26.455315
 C         -32.955799      -89.421738      -28.647213
 C         -34.563095      -89.352333      -26.089113
 C         -33.720524      -88.172462      -28.185213
 C         -34.960590      -88.449486      -27.335199
 H         -33.127800      -91.041862      -25.585287
 H         -34.214359      -91.473541      -26.925032
 H         -32.082588      -89.152466      -29.267036
 H         -33.637760      -90.092888      -29.283859
 H         -34.053795      -88.693352      -25.345526
 H         -35.488804      -89.807770      -25.692316
 H         -34.026562      -87.793343      -29.225039
 H         -33.076904      -87.391624      -27.727335
 H         -35.540752      -87.489883      -26.869349
 H         -35.803268      -88.920235      -27.898132
