20
 generated by VMD
 C         -30.981415      -75.753784      -22.703154
 N         -30.977089      -74.931595      -23.530649
 H         -28.754978      -78.772430      -21.344641
 H         -31.074484      -76.418694      -21.801191
 C         -27.963322      -78.027649      -21.563255
 C         -26.984453      -78.263695      -22.684814
 C         -27.492598      -77.140854      -20.400331
 C         -26.274006      -76.914932      -23.209637
 C         -26.885838      -75.814262      -20.972588
 C         -25.818686      -75.999519      -21.995098
 H         -27.489138      -78.771797      -23.607061
 H         -26.177301      -78.925163      -22.180271
 H         -28.186853      -77.057701      -19.518433
 H         -26.718754      -77.727028      -19.983898
 H         -26.904415      -76.314812      -23.882586
 H         -25.333681      -77.258446      -23.761595
 H         -26.570341      -75.333687      -20.083950
 H         -27.638491      -75.316872      -21.491148
 H         -25.517389      -75.038818      -22.427280
 H         -25.020300      -76.464890      -21.488148
