20
 generated by VMD
 C         -79.387405     -209.193771      -76.171776
 N         -79.239403     -209.597260      -77.240372
 H         -77.677032     -209.311295      -73.092148
 H         -79.532509     -208.792404      -75.196297
 C         -77.967529     -209.978912      -72.279930
 C         -76.948784     -210.548676      -71.404175
 C         -79.027657     -210.959427      -72.798706
 C         -77.694481     -211.197449      -70.153000
 C         -79.632332     -211.693665      -71.640495
 C         -78.702232     -212.111786      -70.613213
 H         -76.255814     -209.792114      -71.031555
 H         -76.384827     -211.212769      -72.036819
 H         -79.767380     -210.288498      -73.318970
 H         -78.532372     -211.634933      -73.590294
 H         -78.132744     -210.456528      -69.467987
 H         -76.917648     -211.820633      -69.688889
 H         -80.111740     -212.582901      -71.919586
 H         -80.539734     -211.122482      -71.158852
 H         -79.130959     -212.611465      -69.755569
 H         -78.204773     -212.982834      -71.108620
