20
 generated by VMD
 C         -49.829525     -128.594528      -43.035664
 N         -50.621708     -128.894211      -43.817215
 H         -48.742218     -128.233276      -39.730240
 H         -48.998306     -128.387726      -42.368397
 C         -47.876251     -128.256744      -40.418106
 C         -46.761749     -129.096039      -40.035542
 C         -47.373867     -127.052048      -41.030201
 C         -45.683205     -129.312469      -41.059978
 C         -46.411182     -127.279648      -42.199772
 C         -45.147900     -127.907738      -41.629383
 H         -47.014042     -130.165207      -39.755726
 H         -46.347931     -128.560059      -39.204933
 H         -48.261154     -126.529945      -41.384220
 H         -46.935219     -126.417297      -40.213310
 H         -46.048653     -129.797012      -41.942978
 H         -44.876842     -129.904953      -40.695660
 H         -46.062660     -126.374840      -42.595673
 H         -46.797508     -127.844734      -42.999107
 H         -44.365849     -128.013290      -42.392406
 H         -44.652645     -127.333199      -40.738140
