20
 generated by VMD
 C         -19.644611      -57.687946      -16.988453
 N         -19.247555      -58.243191      -17.903603
 H         -22.433594      -59.751522      -17.179617
 H         -20.150537      -57.245636      -16.135715
 C         -22.580523      -60.657150      -16.506752
 C         -23.890696      -61.329502      -16.644394
 C         -21.882347      -60.795494      -15.180188
 C         -23.844236      -62.882523      -16.215267
 C         -21.528543      -62.352463      -15.120708
 C         -22.824144      -63.143425      -15.105252
 H         -24.214161      -61.284420      -17.712866
 H         -24.591892      -60.712723      -16.159876
 H         -20.880661      -60.402836      -15.196231
 H         -22.443075      -60.406376      -14.330454
 H         -23.515581      -63.545216      -17.079214
 H         -24.858671      -63.276859      -15.993068
 H         -20.915306      -62.505215      -14.207092
 H         -21.043398      -62.546242      -16.086945
 H         -22.619089      -64.266891      -15.021037
 H         -23.363079      -62.789047      -14.178814
