20
 generated by VMD
 C         -10.944855      -34.219265       -8.933188
 N         -11.289936      -33.171089       -8.729760
 H         -11.610963      -38.065628       -8.239784
 H         -11.973476      -37.081444       -6.708925
 C         -12.318581      -37.927662       -7.333863
 C         -12.373481      -39.265251       -6.515960
 C         -13.665996      -37.636303       -8.057045
 C         -13.611477      -39.317211       -5.576090
 C         -14.853550      -37.658848       -7.095273
 C         -14.931674      -38.976471       -6.260318
 H         -11.404664      -39.382679       -6.031666
 H         -12.448246      -40.095966       -7.188863
 H         -13.642153      -36.572151       -8.384613
 H         -13.748320      -38.281448       -8.942476
 H         -13.422436      -38.590721       -4.779553
 H         -13.756133      -40.242371       -5.113814
 H         -15.855516      -37.529118       -7.611640
 H         -14.737895      -36.829208       -6.359216
 H         -15.744806      -38.851078       -5.464758
 H         -15.252592      -39.842335       -6.853286
