20
 generated by VMD
 C         -57.913956     -165.341217      -56.415115
 N         -57.620094     -166.501648      -56.433064
 H         -60.687511     -164.872513      -54.046848
 H         -58.316948     -164.310120      -56.269211
 C         -61.466465     -165.175232      -54.773182
 C         -61.797813     -166.550232      -55.119938
 C         -62.142834     -164.066208      -55.583630
 C         -63.283298     -166.797516      -55.362160
 C         -63.610786     -164.289795      -55.786915
 C         -63.935375     -165.702682      -56.196392
 H         -61.474514     -167.075653      -54.281635
 H         -61.108200     -166.824417      -55.948708
 H         -61.982498     -163.087662      -55.065754
 H         -61.522690     -163.978729      -56.410847
 H         -63.786766     -166.760498      -54.428158
 H         -63.538887     -167.676468      -55.883217
 H         -64.081062     -163.678513      -56.685089
 H         -64.185097     -164.088715      -54.750381
 H         -64.996170     -165.848557      -56.268791
 H         -63.681679     -165.968689      -57.213341
