20
 generated by VMD
 C          -2.437348       -9.805822       -0.010921
 N          -2.128649       -8.772712        0.362919
 H          -2.044673      -11.299829        2.510150
 H          -2.493263      -11.943614        4.098974
 C          -2.780861      -11.960494        3.041892
 C          -2.495783      -13.332248        2.398716
 C          -4.219400      -11.518190        2.948997
 C          -3.543462      -14.408969        2.829914
 C          -5.246634      -12.637304        3.475178
 C          -4.965545      -13.900400        2.636067
 H          -1.529110      -13.692879        2.627954
 H          -2.502398      -13.253109        1.303108
 H          -4.327506      -10.686421        3.568773
 H          -4.521964      -11.373763        1.921355
 H          -3.407366      -14.768804        3.844753
 H          -3.482445      -15.308971        2.280488
 H          -6.268575      -12.217142        3.391429
 H          -5.011824      -12.784230        4.581408
 H          -5.679938      -14.694944        2.891975
 H          -5.101657      -13.592387        1.577148
