20
 generated by VMD
 C          -2.085149      -16.850683        2.855595
 N          -2.343078      -16.151133        2.024115
 H          -4.418950      -15.785580        0.189406
 H          -4.372963      -16.986824       -1.052635
 C          -5.040494      -16.588087       -0.321440
 C          -6.260825      -15.969584       -1.034612
 C          -5.393197      -17.567951        0.776943
 C          -7.444446      -16.966204       -1.259503
 C          -6.413671      -18.637505        0.287998
 C          -7.652033      -17.955528       -0.106889
 H          -5.969092      -15.474672       -1.943474
 H          -6.617555      -15.178882       -0.318545
 H          -4.492076      -18.213921        1.114022
 H          -5.882846      -17.115091        1.702749
 H          -7.130961      -17.552092       -2.080159
 H          -8.412467      -16.489925       -1.436669
 H          -6.603246      -19.437004        1.020141
 H          -5.903096      -19.074068       -0.596512
 H          -8.443463      -18.709124       -0.321187
 H          -7.992365      -17.303535        0.698148
