20
 generated by VMD
 C         -49.488247     -141.581924      -45.812397
 N         -49.310303     -141.966843      -44.770996
 H         -51.272324     -138.824493      -46.141582
 H         -49.681911     -141.118561      -46.766068
 C         -52.237083     -139.280365      -46.397686
 C         -52.917870     -139.461273      -47.725021
 C         -52.865105     -139.999512      -45.280552
 C         -53.125965     -140.955109      -48.196815
 C         -53.163628     -141.542023      -45.670025
 C         -53.909969     -141.675964      -46.986172
 H         -52.338131     -138.931290      -48.486851
 H         -53.926105     -139.045486      -47.799118
 H         -52.403454     -139.880112      -44.255249
 H         -53.918968     -139.398148      -45.185432
 H         -52.133286     -141.286499      -48.455120
 H         -53.784794     -141.038223      -49.007858
 H         -53.785549     -141.940216      -44.861038
 H         -52.173080     -142.153107      -45.707687
 H         -54.045422     -142.713226      -47.131832
 H         -54.895706     -141.278091      -46.941002
