20
 generated by VMD
 C         -42.923954     -120.750244      -35.311817
 N         -42.618382     -121.014313      -34.224499
 H         -44.296944     -121.142563      -38.665634
 H         -43.187080     -120.367142      -36.345871
 C         -44.070110     -120.070305      -38.575691
 C         -43.122272     -119.525917      -39.552013
 C         -45.167423     -119.165634      -38.164028
 C         -43.808830     -118.866730      -40.774319
 C         -46.013714     -118.765419      -39.319878
 C         -45.032703     -118.095375      -40.366127
 H         -42.318108     -120.176964      -39.945160
 H         -42.645786     -118.591003      -38.943905
 H         -45.736061     -119.711960      -37.406460
 H         -44.661686     -118.305275      -37.550426
 H         -43.919098     -119.722755      -41.461567
 H         -43.095295     -118.218643      -41.216850
 H         -46.659805     -117.970612      -38.995895
 H         -46.503304     -119.702568      -39.740185
 H         -45.601181     -117.939636      -41.261585
 H         -44.557053     -117.165611      -39.913883
