20
 generated by VMD
 C         -70.182457     -181.208252      -63.437386
 N         -71.137100     -181.791473      -63.296410
 H         -67.815514     -181.490433      -61.151134
 H         -69.235275     -180.693024      -63.673599
 C         -66.964859     -180.853699      -60.824390
 C         -65.741028     -181.460587      -60.451557
 C         -67.403053     -179.385849      -60.623184
 C         -64.569519     -180.505661      -60.721428
 C         -66.154045     -178.467453      -60.831829
 C         -64.893600     -179.088837      -60.317738
 H         -65.512337     -182.451019      -60.879978
 H         -65.884247     -181.818253      -59.372189
 H         -68.246422     -179.183197      -61.251499
 H         -67.732582     -179.278244      -59.513611
 H         -64.239098     -180.479004      -61.768261
 H         -63.714661     -180.708771      -60.110916
 H         -66.303749     -177.527878      -60.299793
 H         -66.106995     -178.166046      -61.879635
 H         -64.035309     -178.504623      -60.550484
 H         -64.983032     -179.001236      -59.134415
