20
 generated by VMD
 C         -65.635826     -177.673050      -56.737209
 N         -66.136200     -176.630676      -56.561810
 H         -64.999672     -175.452454      -59.330456
 H         -65.164078     -178.591522      -56.952389
 C         -64.718811     -174.488007      -59.519615
 C         -65.318428     -173.446289      -58.630398
 C         -63.478283     -174.050247      -60.359001
 C         -65.095192     -172.016098      -58.891422
 C         -63.084705     -172.561905      -60.270454
 C         -64.380692     -171.746857      -60.284794
 H         -65.159904     -173.547104      -57.534184
 H         -66.381363     -173.646469      -58.890793
 H         -62.593201     -174.633438      -60.012714
 H         -63.906792     -174.206131      -61.294868
 H         -64.400833     -171.540878      -58.153584
 H         -65.959084     -171.353317      -58.933075
 H         -62.354206     -172.387436      -61.117031
 H         -62.548141     -172.409866      -59.362171
 H         -64.250244     -170.662384      -60.367142
 H         -65.177269     -172.007126      -61.004719
