20
 generated by VMD
 C         -29.463823      -89.151474      -26.098255
 N         -29.514364      -88.754372      -24.970522
 H         -31.591415      -90.723434      -27.508032
 H         -29.433615      -89.641602      -27.007219
 C         -32.515373      -90.083504      -27.417210
 C         -33.157139      -90.092949      -26.101004
 C         -33.007130      -89.263092      -28.633160
 C         -34.099640      -88.916557      -25.932608
 C         -34.000992      -88.093056      -28.294701
 C         -34.882893      -88.544189      -27.143730
 H         -32.348228      -89.991501      -25.375113
 H         -33.807796      -91.005638      -26.029726
 H         -32.238651      -88.667786      -29.185047
 H         -33.438629      -89.883682      -29.395176
 H         -33.709461      -87.976776      -25.548771
 H         -34.759205      -89.056602      -25.144213
 H         -34.577305      -87.744331      -29.184963
 H         -33.377686      -87.249527      -28.069056
 H         -35.346233      -87.498421      -26.954489
 H         -35.593651      -89.277542      -27.602556
