20
 generated by VMD
 C         -45.917919     -123.869431      -35.653641
 N         -46.486217     -124.896660      -35.458759
 H         -44.471016     -121.817688      -37.946857
 H         -45.271461     -123.049278      -35.589256
 C         -44.638424     -121.554466      -39.032814
 C         -43.381004     -121.421684      -39.723007
 C         -45.768440     -120.714233      -39.568325
 C         -43.459377     -121.463051      -41.234875
 C         -45.866673     -120.709076      -41.031223
 C         -44.522476     -120.368301      -41.710285
 H         -42.649307     -122.161842      -39.401852
 H         -42.809818     -120.529427      -39.397583
 H         -46.797047     -121.140930      -39.163963
 H         -45.602852     -119.753662      -39.135517
 H         -43.661343     -122.470901      -41.593388
 H         -42.533566     -121.238724      -41.609386
 H         -46.548386     -120.067879      -41.394623
 H         -46.185387     -121.646553      -41.341286
 H         -44.617210     -120.378212      -42.786133
 H         -44.221649     -119.352959      -41.292652
