20
 generated by VMD
 C         -40.045567     -101.095123      -31.859200
 N         -40.966835     -100.614532      -31.354462
 H         -38.131401     -103.171967      -32.358147
 H         -39.237076     -101.313683      -32.496613
 C         -37.237103     -102.594032      -32.133141
 C         -35.919510     -102.545387      -32.756302
 C         -37.236202     -102.297279      -30.477316
 C         -35.458450     -101.073296      -32.514755
 C         -36.559921     -100.983620      -30.159941
 C         -35.220737     -100.858620      -30.985109
 H         -35.958145     -102.792084      -33.822220
 H         -35.265587     -103.257347      -32.307354
 H         -38.246971     -102.470154      -30.089624
 H         -36.504143     -103.028885      -30.007805
 H         -36.308956     -100.477562      -32.877640
 H         -34.632504     -100.769783      -33.131981
 H         -36.355911     -100.922386      -29.046337
 H         -37.225094     -100.106918      -30.363714
 H         -34.925018      -99.819328      -30.853170
 H         -34.540176     -101.541595      -30.551003
