20
 generated by VMD
 C          -1.840868      -13.041597        0.515558
 N          -1.545588      -13.695809        1.362439
 H          -3.377548      -15.606239        1.600865
 H          -4.273875      -15.456274        0.044808
 C          -4.338308      -15.843485        1.077202
 C          -5.493917      -15.040221        1.721672
 C          -4.792085      -17.305254        0.936650
 C          -6.787968      -15.153843        0.872104
 C          -6.094666      -17.505590        0.136250
 C          -7.173497      -16.638020        0.762593
 H          -5.136669      -14.031364        1.818102
 H          -5.692604      -15.568701        2.702419
 H          -4.053739      -17.912107        0.556017
 H          -4.993560      -17.680861        1.891226
 H          -6.728460      -14.775935       -0.147822
 H          -7.615921      -14.748227        1.424160
 H          -6.427142      -18.538307        0.230397
 H          -5.894228      -17.316235       -0.899699
 H          -8.089562      -16.734381        0.145645
 H          -7.445358      -16.995180        1.763575
