20
 generated by VMD
 C         -48.021408     -125.894775      -38.763733
 N         -48.603230     -126.870384      -38.591763
 H         -46.029800     -123.469833      -38.178745
 H         -47.436352     -124.986641      -39.061649
 C         -45.639751     -123.320084      -39.140560
 C         -44.510483     -124.246513      -39.434216
 C         -45.584148     -122.015533      -39.890545
 C         -44.393688     -124.551796      -40.958027
 C         -45.506882     -122.234619      -41.445240
 C         -44.492764     -123.257660      -41.873421
 H         -44.612419     -125.303635      -38.926804
 H         -43.717819     -123.666367      -38.943432
 H         -46.310246     -121.311661      -39.505848
 H         -44.631931     -121.609879      -39.480114
 H         -45.189938     -125.192741      -41.319469
 H         -43.521648     -125.110596      -41.106876
 H         -45.402279     -121.331558      -41.937824
 H         -46.419418     -122.644836      -41.773582
 H         -44.584759     -123.504684      -42.952801
 H         -43.488525     -122.758530      -41.673355
