20
 generated by VMD
 C         -12.051724      -39.533161       -6.607128
 N         -11.017607      -39.262081       -6.997937
 H         -12.978818      -41.137077       -9.142384
 H         -14.010552      -39.933308       -8.767703
 C         -14.007516      -40.990524       -9.060404
 C         -14.637568      -41.874783       -8.034422
 C         -14.520732      -41.181213      -10.445444
 C         -16.149614      -41.708717       -8.023518
 C         -16.045795      -41.178150      -10.485457
 C         -16.644482      -42.056473       -9.404027
 H         -14.251315      -41.638851       -7.057487
 H         -14.371590      -42.931419       -8.199860
 H         -14.196845      -40.413307      -11.143517
 H         -14.170785      -42.183971      -10.815845
 H         -16.461546      -40.690426       -7.694163
 H         -16.598764      -42.363987       -7.315505
 H         -16.354940      -41.520493      -11.525734
 H         -16.436140      -40.192394      -10.370207
 H         -17.713156      -41.962318       -9.442710
 H         -16.316639      -43.076431       -9.520196
