20
 generated by VMD
 C         -26.973684      -72.257668      -17.557625
 N         -27.584478      -73.214798      -17.268570
 H         -24.556145      -70.296539      -18.590441
 H         -26.531088      -71.368484      -17.716217
 C         -24.983303      -70.450249      -19.601933
 C         -24.325443      -71.563972      -20.407400
 C         -25.604893      -69.370140      -20.516844
 C         -25.289524      -72.271271      -21.419140
 C         -26.623453      -70.169487      -21.545813
 C         -25.782280      -71.274406      -22.371712
 H         -23.908484      -72.299660      -19.775326
 H         -23.479607      -71.295685      -21.058519
 H         -26.147118      -68.676796      -19.891521
 H         -24.869333      -68.849266      -21.120419
 H         -26.098488      -72.809250      -20.943874
 H         -24.622217      -72.971565      -21.875944
 H         -27.182096      -69.451904      -22.254736
 H         -27.358702      -70.771889      -20.855793
 H         -26.444151      -71.655769      -23.166924
 H         -25.081390      -70.804688      -23.000221
