20
 generated by VMD
 C         -13.317307      -30.406599       -8.317466
 N         -13.723143      -30.215117       -9.338677
 H         -10.896195      -31.260965       -5.426341
 H         -10.983533      -31.705954       -3.612720
 C         -10.822510      -32.082466       -4.683939
 C          -9.466805      -32.672100       -4.802755
 C         -11.900918      -33.083050       -5.007143
 C          -9.340926      -34.013676       -4.067690
 C         -11.875825      -34.489605       -4.282220
 C         -10.430610      -35.038948       -4.451371
 H          -8.708154      -32.007359       -4.244814
 H          -9.205354      -32.868046       -5.835040
 H         -12.884446      -32.681808       -4.745193
 H         -11.866825      -33.345806       -6.075587
 H          -9.506592      -33.849998       -3.017324
 H          -8.341732      -34.391705       -4.330508
 H         -12.593038      -35.043274       -4.800362
 H         -12.094706      -34.339008       -3.192741
 H         -10.289384      -35.976170       -3.946429
 H         -10.319768      -35.219769       -5.552815
