20
 generated by VMD
 C         -47.561989     -124.726639      -38.045944
 N         -47.437622     -125.684135      -38.689728
 H         -44.621078     -122.245041      -37.683189
 H         -47.984554     -123.782265      -37.646358
 C         -44.874813     -122.542709      -38.719784
 C         -43.729980     -123.323402      -39.495525
 C         -45.698818     -121.662529      -39.532288
 C         -44.171871     -123.853043      -40.916485
 C         -46.140373     -122.330940      -40.884590
 C         -44.900692     -122.778038      -41.674107
 H         -43.303226     -124.013206      -38.776028
 H         -42.893749     -122.543793      -39.717625
 H         -46.592430     -121.503593      -38.831352
 H         -45.228134     -120.691284      -39.716393
 H         -44.855633     -124.692986      -40.851692
 H         -43.398754     -124.205963      -41.611961
 H         -46.564857     -121.571892      -41.538261
 H         -46.947636     -122.947105      -40.764278
 H         -45.266380     -123.230270      -42.584301
 H         -44.195843     -121.978546      -42.012352
