20
 generated by VMD
 C         -40.824982     -103.890091      -37.254585
 N         -40.649605     -104.724518      -36.448635
 H         -39.757046     -105.939514      -34.151382
 H         -40.998569     -102.968819      -37.774117
 C         -39.404804     -106.692245      -33.450932
 C         -38.081928     -106.288933      -32.847210
 C         -39.835545     -108.049088      -33.360176
 C         -37.900928     -106.917091      -31.453079
 C         -39.502037     -108.658783      -32.014015
 C         -38.070999     -108.383484      -31.377138
 H         -37.936443     -105.187798      -32.779175
 H         -37.366657     -106.767326      -33.418579
 H         -40.984406     -108.139809      -33.340893
 H         -39.439621     -108.772537      -34.081516
 H         -38.576134     -106.379814      -30.834646
 H         -36.908371     -106.692520      -31.069761
 H         -39.626919     -109.747093      -31.984327
 H         -40.138477     -108.156105      -31.261517
 H         -38.151394     -108.692772      -30.244253
 H         -37.295956     -108.939392      -31.865673
