20
 generated by VMD
 C         -23.720654      -68.893745      -16.537954
 N         -23.425983      -69.711906      -15.742979
 H         -23.998209      -66.263588      -19.232468
 H         -24.093456      -68.334358      -17.343819
 C         -24.430395      -67.146812      -19.544825
 C         -23.866936      -67.793869      -20.774939
 C         -25.873707      -67.158730      -19.074781
 C         -24.414625      -69.161263      -20.665636
 C         -26.501913      -68.598183      -19.223175
 C         -26.033966      -69.207199      -20.538525
 H         -22.852066      -67.737442      -20.895092
 H         -24.284521      -67.326248      -21.655148
 H         -25.909246      -66.711800      -18.021967
 H         -26.559790      -66.383873      -19.741388
 H         -23.981037      -69.697639      -19.803244
 H         -24.051573      -69.734901      -21.612904
 H         -27.638313      -68.549904      -19.164648
 H         -26.313593      -69.342194      -18.354740
 H         -26.326466      -70.291344      -20.562855
 H         -26.561384      -68.594490      -21.319677
