20
 generated by VMD
 C         -74.921249     -201.808472      -66.565918
 N         -74.676445     -201.373825      -65.510338
 H         -76.359467     -199.200836      -69.103386
 H         -75.315483     -202.231613      -67.467834
 C         -75.322838     -198.773224      -68.964142
 C         -75.003380     -197.497025      -68.314217
 C         -74.235245     -199.409729      -69.819054
 C         -73.504807     -197.451050      -68.018570
 C         -73.266228     -198.391174      -70.416328
 C         -72.571564     -197.823624      -69.137352
 H         -75.518623     -197.512680      -67.402908
 H         -75.296570     -196.566864      -68.971275
 H         -73.762230     -200.233276      -69.298386
 H         -74.761009     -200.068115      -70.594803
 H         -73.249992     -198.006149      -67.094292
 H         -73.186699     -196.465515      -67.634132
 H         -73.817741     -197.636230      -71.022087
 H         -72.509026     -198.789413      -71.055649
 H         -71.936378     -198.601868      -68.678787
 H         -71.966576     -197.034210      -69.611755
