20
 generated by VMD
 C         -40.709534     -100.170959      -30.115725
 N         -40.828510     -100.359276      -28.959740
 H         -37.441105      -99.818321      -30.601202
 H         -40.744793     -100.031204      -31.187212
 C         -36.402596      -99.978615      -30.857859
 C         -36.073978      -99.722588      -32.324123
 C         -35.310375      -99.766258      -29.788284
 C         -35.062992      -98.625351      -32.406288
 C         -34.345943      -98.619102      -30.051445
 C         -33.821011      -98.682747      -31.424471
 H         -37.008690      -99.553810      -32.878723
 H         -35.646271     -100.633041      -32.772175
 H         -35.767689      -99.645622      -28.794172
 H         -34.780697     -100.715942      -29.716209
 H         -35.492077      -97.672852      -32.093369
 H         -34.590569      -98.384537      -33.381382
 H         -33.487190      -98.530663      -29.348793
 H         -34.727646      -97.640747      -29.898254
 H         -33.229389      -97.802750      -31.520300
 H         -33.163387      -99.601402      -31.661911
