20
 generated by VMD
 C         -27.555643      -81.231812      -27.195860
 N         -28.467239      -81.749710      -27.647470
 H         -29.885948      -83.821053      -25.689301
 H         -26.584112      -80.766685      -26.971682
 C         -30.705450      -84.224907      -25.103970
 C         -30.601913      -84.152725      -23.567327
 C         -31.681166      -85.316154      -25.681952
 C         -31.864016      -84.645203      -22.854137
 C         -32.721336      -85.861588      -24.732025
 C         -32.294975      -86.019264      -23.288549
 H         -30.293077      -83.245926      -23.143000
 H         -29.784786      -84.769554      -23.102930
 H         -32.026260      -84.981277      -26.637625
 H         -31.086510      -86.220924      -25.855000
 H         -32.560101      -83.896065      -22.951513
 H         -31.541204      -84.640633      -21.745638
 H         -32.921608      -86.976578      -25.004068
 H         -33.688892      -85.388412      -24.664228
 H         -33.039658      -86.452431      -22.589531
 H         -31.348799      -86.700035      -23.260677
