20
 generated by VMD
 C         -57.469215     -164.184967      -56.663166
 N         -57.265842     -163.145554      -57.235195
 H         -59.829483     -164.812576      -54.486340
 H         -57.638222     -165.137009      -56.174442
 C         -60.858917     -165.088104      -54.682793
 C         -61.706150     -165.354492      -53.513699
 C         -61.368969     -164.351151      -55.915825
 C         -63.195637     -164.872360      -53.539932
 C         -62.780678     -163.787155      -55.859478
 C         -63.779701     -164.681931      -55.031132
 H         -61.234585     -164.996735      -52.652897
 H         -61.736015     -166.436737      -53.543430
 H         -60.584866     -163.592087      -56.194977
 H         -61.424942     -165.075043      -56.690845
 H         -63.326443     -163.969559      -52.986652
 H         -63.719845     -165.606247      -52.981052
 H         -63.152187     -163.769089      -56.940048
 H         -62.757042     -162.878189      -55.381004
 H         -64.874451     -164.327820      -54.930832
 H         -63.841076     -165.787964      -55.411907
