20
 generated by VMD
 C         -68.539665     -188.191284      -66.744644
 N         -68.588486     -189.350647      -66.803337
 H         -68.319229     -187.268585      -63.309998
 H         -68.374786     -187.174911      -66.610085
 C         -69.309502     -187.716278      -63.428944
 C         -69.497154     -189.162888      -63.350498
 C         -70.424675     -186.828827      -63.156754
 C         -70.849953     -189.648727      -64.028427
 C         -71.734146     -187.283432      -63.789005
 C         -72.012924     -188.842651      -63.491280
 H         -69.371773     -189.551239      -62.347500
 H         -68.741837     -189.598694      -63.973755
 H         -70.559380     -186.684677      -62.053104
 H         -70.169434     -185.897873      -63.562614
 H         -70.987900     -190.663071      -63.763359
 H         -70.777649     -189.576187      -65.145821
 H         -71.625961     -187.149902      -64.889023
 H         -72.422897     -186.593048      -63.357052
 H         -72.025780     -188.775665      -62.384743
 H         -73.032730     -189.142563      -63.993191
