20
 generated by VMD
 C          -1.634139      -14.120903        1.871609
 N          -1.913631      -13.239820        1.237116
 H          -3.622151      -17.241482        1.098947
 H          -4.349771      -17.106853       -0.424509
 C          -4.580687      -17.086098        0.648064
 C          -5.277967      -15.723945        0.955403
 C          -5.554094      -18.207548        0.897850
 C          -6.477220      -15.555733        0.066487
 C          -6.808977      -18.111460        0.053216
 C          -7.443421      -16.718143        0.188629
 H          -4.548962      -14.892305        0.895928
 H          -5.624711      -15.761333        1.967528
 H          -5.094728      -19.246925        0.927074
 H          -5.817561      -18.138847        1.988323
 H          -6.199389      -15.482123       -1.052993
 H          -7.089959      -14.679645        0.382423
 H          -7.552820      -18.826090        0.540486
 H          -6.600599      -18.446024       -0.974281
 H          -8.173060      -16.582708       -0.596526
 H          -7.965866      -16.560493        1.133860
