20
 generated by VMD
 C         -31.405207      -78.483742      -26.340311
 N         -31.392654      -77.919815      -27.325922
 H         -29.504988      -79.563301      -24.203732
 H         -31.601990      -78.786354      -25.324280
 C         -29.142412      -80.338142      -23.552851
 C         -27.592897      -80.514259      -23.307133
 C         -30.052765      -81.561745      -23.357111
 C         -27.466196      -81.051392      -21.776794
 C         -29.770828      -82.096039      -21.957367
 C         -28.293369      -82.218918      -21.516924
 H         -27.142725      -79.531990      -23.420214
 H         -27.174215      -81.329872      -23.873640
 H         -31.031401      -81.221748      -23.629751
 H         -29.779959      -82.384171      -24.119511
 H         -27.785133      -80.224922      -21.178133
 H         -26.383308      -81.177902      -21.432219
 H         -30.498928      -82.996429      -21.795227
 H         -30.091663      -81.328224      -21.259281
 H         -28.270830      -82.311104      -20.457870
 H         -27.945095      -83.143028      -21.858892
