20
 generated by VMD
 C         -72.197807     -199.281830      -64.977753
 N         -71.043297     -199.128555      -64.975372
 H         -71.946716     -196.490524      -66.532494
 H         -73.257370     -199.150650      -65.071220
 C         -72.582733     -195.961777      -67.248482
 C         -72.865189     -194.448563      -67.007088
 C         -72.925758     -196.494049      -68.624725
 C         -73.830872     -193.791107      -67.965858
 C         -74.357643     -196.160461      -69.007164
 C         -74.871506     -194.815002      -68.403107
 H         -71.908043     -193.974716      -66.920448
 H         -73.480888     -194.395447      -66.117058
 H         -72.198563     -196.086990      -69.433266
 H         -72.880203     -197.629303      -68.582977
 H         -73.296837     -193.368240      -68.776108
 H         -74.292450     -192.940048      -67.482742
 H         -75.111076     -196.895996      -68.722130
 H         -74.289467     -196.084183      -70.100380
 H         -75.601357     -194.272430      -69.144028
 H         -75.350220     -194.954056      -67.493500
