20
 generated by VMD
 C         -11.447536      -41.972019       -6.158677
 N         -10.979788      -41.296139       -6.902308
 H         -14.591281      -41.047096       -8.375403
 H         -15.584297      -40.440041       -9.798579
 C         -15.267008      -41.276943       -9.189008
 C         -16.563509      -41.923248       -8.678563
 C         -14.597493      -42.298813      -10.197095
 C         -17.494675      -42.458534       -9.755771
 C         -15.504942      -42.988380      -11.205088
 C         -16.782948      -43.575119      -10.571153
 H         -17.126621      -41.246284       -7.969434
 H         -16.303110      -42.771736       -8.025381
 H         -13.741284      -41.760197      -10.704033
 H         -14.121418      -43.032665       -9.507937
 H         -17.712238      -41.584480      -10.372167
 H         -18.413746      -42.915363       -9.390106
 H         -14.892389      -43.802128      -11.626455
 H         -15.812941      -42.298096      -11.989850
 H         -17.393780      -43.941639      -11.407478
 H         -16.597984      -44.376286       -9.892711
