20
 generated by VMD
 C         -28.016863      -82.433525      -26.994120
 N         -27.238634      -83.304832      -26.856201
 H         -31.292498      -84.212555      -26.506702
 H         -28.743069      -81.660820      -27.302393
 C         -31.789654      -84.924271      -25.798647
 C         -31.347231      -84.696861      -24.394260
 C         -32.160519      -86.216209      -26.233183
 C         -32.235474      -85.444038      -23.344641
 C         -33.211937      -86.805611      -25.297455
 C         -32.614902      -86.859520      -23.845148
 H         -31.415972      -83.611290      -24.337280
 H         -30.268326      -85.016953      -24.277395
 H         -32.620697      -86.078308      -27.250420
 H         -31.408192      -86.940453      -26.357845
 H         -33.115097      -84.966209      -23.107754
 H         -31.710291      -85.442429      -22.344971
 H         -33.452862      -87.907028      -25.619404
 H         -34.134106      -86.246178      -25.244156
 H         -33.230392      -87.305527      -23.033031
 H         -31.630419      -87.484657      -23.965204
