20
 generated by VMD
 C         -49.608631     -131.814514      -46.495247
 N         -50.142273     -132.510376      -47.245403
 H         -48.271194     -133.056915      -44.635376
 H         -48.868980     -131.079453      -46.131474
 C         -48.615028     -133.625778      -43.750805
 C         -49.334084     -134.924316      -44.035404
 C         -49.077209     -132.817810      -42.560539
 C         -49.520199     -135.690720      -42.710358
 C         -49.361885     -133.639801      -41.372330
 C         -50.198895     -134.839890      -41.638611
 H         -48.679607     -135.483734      -44.806717
 H         -50.288322     -134.609726      -44.504593
 H         -48.387299     -132.085052      -42.258755
 H         -49.953285     -132.307007      -42.840576
 H         -48.571877     -136.066788      -42.266174
 H         -50.064896     -136.615005      -42.884541
 H         -49.785950     -133.078354      -40.489616
 H         -48.378880     -134.093765      -41.044571
 H         -50.346806     -135.350739      -40.728752
 H         -51.242619     -134.482178      -42.102264
