20
 generated by VMD
 C         -11.963849      -25.982859       -0.081303
 N         -12.934758      -26.211109       -0.561588
 H          -9.811033      -26.498030       -3.090792
 H          -9.498285      -25.755980       -4.651520
 C          -9.020157      -26.173883       -3.751922
 C          -8.037168      -27.305229       -4.117877
 C          -8.354063      -25.144543       -2.829941
 C          -6.770270      -26.624838       -4.728714
 C          -7.146389      -24.505756       -3.583610
 C          -6.137991      -25.603123       -3.803484
 H          -8.442412      -27.932821       -4.817564
 H          -7.792323      -28.029217       -3.311937
 H          -9.067814      -24.350796       -2.607664
 H          -8.004580      -25.603151       -1.884090
 H          -6.916674      -26.258682       -5.753628
 H          -6.069818      -27.447727       -4.899051
 H          -6.736140      -23.712704       -2.943859
 H          -7.379341      -23.997185       -4.497728
 H          -5.198489      -25.213253       -4.234787
 H          -5.779803      -26.047235       -2.837876
