20
 generated by VMD
 C          -5.888695      -21.119955        1.577813
 N          -5.726534      -21.576962        2.572266
 H          -4.982594      -18.443357       -1.247695
 H          -5.473644      -19.907068       -0.314912
 C          -5.720495      -19.236902       -1.234745
 C          -5.532144      -20.221087       -2.406569
 C          -7.164606      -18.708866       -1.139388
 C          -6.622373      -21.345737       -2.380445
 C          -8.193668      -19.847700       -1.169860
 C          -7.962364      -20.715633       -2.382612
 H          -4.520561      -20.704134       -2.330384
 H          -5.617640      -19.747194       -3.398334
 H          -7.225968      -18.213625       -0.175557
 H          -7.312766      -17.908272       -1.754713
 H          -6.462629      -22.086641       -1.562379
 H          -6.460228      -21.898987       -3.363709
 H          -9.229090      -19.423435       -1.262714
 H          -8.239447      -20.413721       -0.240107
 H          -8.738434      -21.460201       -2.493079
 H          -8.009377      -20.035227       -3.252558
