20
 generated by VMD
 C         -19.560825      -58.022884      -17.133400
 N         -19.232737      -58.576923      -18.101723
 H         -22.610025      -59.692150      -16.937315
 H         -19.552288      -57.503910      -16.094112
 C         -22.920509      -60.598873      -16.267441
 C         -23.952221      -61.570183      -16.751751
 C         -22.054775      -60.980438      -15.149343
 C         -23.408649      -62.941803      -16.765451
 C         -21.998299      -62.576267      -14.754657
 C         -23.072281      -63.465179      -15.378004
 H         -24.189947      -61.321896      -17.774218
 H         -24.772003      -61.498726      -16.129568
 H         -21.054003      -60.626316      -15.331377
 H         -22.340405      -60.448189      -14.246672
 H         -22.468287      -62.905281      -17.319391
 H         -24.100691      -63.585991      -17.231691
 H         -21.957584      -62.611282      -13.672236
 H         -20.984501      -62.963680      -14.941935
 H         -22.617350      -64.479843      -15.470422
 H         -23.961733      -63.575363      -14.718180
