20
 generated by VMD
 C         -43.459339     -121.141907      -36.047863
 N         -43.560280     -120.547951      -35.089111
 H         -44.899918     -122.306534      -39.392300
 H         -43.173500     -121.760208      -36.941990
 C         -44.736965     -121.231110      -39.444462
 C         -43.383652     -120.733780      -39.723507
 C         -45.856693     -120.460274      -38.834927
 C         -43.347538     -119.276802      -40.218643
 C         -45.885574     -118.985634      -39.349365
 C         -44.348385     -118.441856      -39.456863
 H         -42.822037     -121.466499      -40.315212
 H         -42.779129     -120.757301      -38.734245
 H         -46.795120     -120.773186      -39.172066
 H         -45.811558     -120.523468      -37.740726
 H         -43.750526     -119.234612      -41.230450
 H         -42.390266     -118.858917      -40.205788
 H         -46.455585     -118.341522      -38.802357
 H         -46.278309     -119.039490      -40.335999
 H         -44.341202     -117.430046      -39.952835
 H         -43.963913     -118.120514      -38.375374
