20
 generated by VMD
 C         -20.526796      -57.371094      -16.642323
 N         -20.007902      -56.368080      -16.465424
 H         -22.751396      -60.290695      -17.945490
 H         -21.215151      -58.265892      -16.812485
 C         -22.439558      -60.560745      -16.912230
 C         -23.199444      -60.011669      -15.715135
 C         -21.271839      -61.440796      -16.920559
 C         -22.524309      -60.307152      -14.394608
 C         -21.036524      -62.073326      -15.556901
 C         -21.820641      -61.682941      -14.278644
 H         -24.227333      -60.316910      -15.659231
 H         -23.376093      -58.892735      -15.793027
 H         -21.425674      -62.143204      -17.734413
 H         -20.384830      -60.820026      -17.186789
 H         -23.245564      -60.166180      -13.589937
 H         -21.712540      -59.521320      -14.336967
 H         -19.937912      -61.816940      -15.335278
 H         -20.887218      -63.176689      -15.599790
 H         -22.584261      -62.430367      -14.324736
 H         -21.294107      -61.710220      -13.306989
