20
 generated by VMD
 C         -71.678200     -199.094330      -64.719315
 N         -70.630241     -198.808258      -65.155884
 H         -72.328278     -196.525772      -66.392021
 H         -72.636559     -199.270264      -64.192345
 C         -72.841270     -195.920654      -67.131294
 C         -73.090752     -194.548050      -66.761993
 C         -73.228775     -196.485809      -68.447350
 C         -73.470779     -193.738068      -68.015526
 C         -74.551147     -195.783066      -68.905602
 C         -74.695900     -194.347519      -68.604599
 H         -72.279297     -194.186081      -66.163040
 H         -73.872231     -194.401901      -66.008965
 H         -72.333336     -196.430756      -69.195221
 H         -73.326149     -197.609665      -68.410309
 H         -72.647728     -193.737015      -68.693237
 H         -73.684006     -192.705124      -67.763603
 H         -75.408020     -196.244263      -68.412170
 H         -74.687187     -196.184479      -69.896553
 H         -74.789047     -193.907471      -69.680511
 H         -75.555679     -194.116028      -68.098213
