20
 generated by VMD
 C         -68.861778     -185.899826      -66.215012
 N         -68.473892     -186.160110      -67.268570
 H         -69.381828     -182.955429      -63.562458
 H         -69.294395     -185.640594      -65.298950
 C         -69.351379     -183.793549      -62.755199
 C         -70.381813     -184.868073      -62.663296
 C         -67.975319     -183.873093      -62.191288
 C         -70.172188     -185.805954      -61.469543
 C         -67.674149     -185.249756      -61.389328
 C         -68.805664     -186.357788      -61.495026
 H         -70.320847     -185.343140      -63.677658
 H         -71.322731     -184.306366      -62.560005
 H         -67.183365     -183.840759      -62.987335
 H         -67.821243     -183.088806      -61.466915
 H         -70.788490     -186.741638      -61.604736
 H         -70.588669     -185.243179      -60.633919
 H         -67.402412     -184.894348      -60.357498
 H         -66.743385     -185.775253      -61.764835
 H         -68.724579     -186.851517      -62.472752
 H         -68.589790     -187.040512      -60.739952
