20
 generated by VMD
 C         -21.048267      -56.457500      -16.995504
 N         -21.090130      -55.519478      -17.703760
 H         -23.111080      -58.714157      -15.976770
 H         -20.826015      -57.473251      -16.797262
 C         -22.145571      -59.124851      -15.636994
 C         -21.980684      -58.983654      -14.174592
 C         -21.736515      -60.427116      -16.396811
 C         -21.009346      -59.909420      -13.368278
 C         -20.438118      -60.900364      -15.741290
 C         -20.788597      -61.312912      -14.251280
 H         -22.930347      -59.004505      -13.588578
 H         -21.690929      -57.947933      -14.126002
 H         -22.473293      -61.215012      -16.389135
 H         -21.435648      -60.185085      -17.387142
 H         -21.247677      -60.150787      -12.284903
 H         -20.052141      -59.374828      -13.194994
 H         -19.586510      -60.297752      -15.905540
 H         -20.187672      -61.857834      -16.169653
 H         -21.677992      -61.964222      -14.153765
 H         -19.945002      -61.804394      -13.825478
