20
 generated by VMD
 C         -69.796463     -180.516098      -61.439167
 N         -69.156242     -180.763016      -62.353165
 H         -66.922676     -180.024277      -59.305180
 H         -70.403481     -180.226501      -60.579670
 C         -66.241859     -179.228455      -59.758289
 C         -65.537254     -179.503906      -60.975258
 C         -65.756088     -178.126968      -58.869854
 C         -65.221199     -178.181564      -61.705730
 C         -65.722237     -176.807968      -59.721684
 C         -64.732292     -177.058563      -60.850700
 H         -66.044571     -180.308823      -61.469170
 H         -64.667885     -180.046021      -60.736713
 H         -66.520439     -177.967575      -58.031612
 H         -64.826675     -178.155869      -58.390148
 H         -66.257408     -177.814957      -62.021801
 H         -64.415970     -178.397598      -62.395271
 H         -65.561394     -175.989288      -59.031582
 H         -66.708015     -176.517120      -60.212494
 H         -64.558289     -176.072968      -61.338997
 H         -63.775890     -177.076218      -60.311283
