20
 generated by VMD
 C         -13.921808      -29.120432       -7.385814
 N         -13.382331      -29.031168       -8.361131
 H         -11.597038      -30.408850       -4.886441
 H         -10.139621      -30.043951       -3.869837
 C         -10.692628      -30.835655       -4.361748
 C          -9.879831      -31.460886       -5.491531
 C         -11.094190      -31.921741       -3.323132
 C          -8.710481      -32.219139       -4.912482
 C          -9.913393      -32.773655       -2.764940
 C          -9.140673      -33.287182       -3.981756
 H          -9.453067      -30.660540       -6.128694
 H         -10.487311      -32.035999       -6.140340
 H         -11.607060      -31.390472       -2.510964
 H         -11.838735      -32.531654       -3.826209
 H          -8.018649      -31.509085       -4.388988
 H          -8.201550      -32.603050       -5.834375
 H         -10.210427      -33.632248       -2.237423
 H          -9.277938      -32.131130       -2.062802
 H          -8.218041      -33.837257       -3.673295
 H          -9.889319      -33.998413       -4.476526
