20
 generated by VMD
 C         -40.165783      -99.608795      -28.860218
 N         -39.347916     -100.074142      -28.186565
 H         -37.350895      -98.021538      -30.803392
 H         -40.735897      -98.975624      -29.561623
 C         -36.386127      -98.599617      -30.813910
 C         -35.814987      -98.910866      -32.128880
 C         -35.481468      -98.317581      -29.518450
 C         -34.702759      -97.960381      -32.506626
 C         -34.254772      -97.417107      -29.866354
 C         -33.629879      -97.755966      -31.284769
 H         -36.637489      -99.021492      -32.881084
 H         -35.413124      -99.878212      -31.843128
 H         -36.223045      -97.920677      -28.753489
 H         -35.011272      -99.241379      -29.180382
 H         -35.100731      -96.962563      -32.722221
 H         -34.260479      -98.503731      -33.427074
 H         -33.479641      -97.534470      -29.068882
 H         -34.351433      -96.386940      -29.864351
 H         -32.802944      -97.073837      -31.573248
 H         -33.213699      -98.754761      -31.200686
