20
 generated by VMD
 C         -41.042377     -102.267860      -34.808258
 N         -41.486309     -101.976280      -35.805042
 H         -39.619892     -104.740013      -32.216526
 H         -40.890308     -102.541565      -33.733189
 C         -38.640514     -104.648407      -31.947622
 C         -37.688732     -103.999207      -32.792915
 C         -38.277592     -105.703766      -30.936245
 C         -36.403046     -103.526237      -32.081066
 C         -36.971794     -105.392540      -30.312418
 C         -35.868046     -104.897438      -31.442837
 H         -37.991611     -103.075066      -33.348484
 H         -37.489048     -104.820328      -33.524956
 H         -39.034004     -105.650963      -30.142578
 H         -38.339634     -106.627289      -31.462755
 H         -36.673367     -102.753906      -31.352222
 H         -35.676491     -103.075256      -32.810898
 H         -36.527962     -106.222618      -29.701069
 H         -37.094036     -104.603012      -29.625216
 H         -34.899471     -104.687378      -30.841982
 H         -35.766544     -105.719521      -32.125744
