20
 generated by VMD
 C         -79.715729     -206.883957      -75.415115
 N         -79.965210     -207.445160      -74.462440
 H         -76.811874     -208.082977      -73.398827
 H         -79.407402     -206.535416      -76.426109
 C         -76.836189     -208.273712      -72.266235
 C         -75.678963     -207.898163      -71.415672
 C         -77.844734     -209.187622      -71.661125
 C         -75.978928     -207.733292      -69.934448
 C         -78.190895     -209.006836      -70.215439
 C         -76.900375     -208.815323      -69.357452
 H         -75.098785     -206.990738      -71.789787
 H         -74.992683     -208.744095      -71.416435
 H         -78.828468     -209.253586      -72.210556
 H         -77.429558     -210.190506      -71.589249
 H         -76.400314     -206.739014      -69.647682
 H         -75.009048     -207.783463      -69.375870
 H         -78.584618     -210.006058      -69.776466
 H         -79.013275     -208.326035      -70.076668
 H         -77.312065     -208.504333      -68.397774
 H         -76.202156     -209.634476      -69.205872
