20
 generated by VMD
 C         -21.746525      -52.319248      -11.427183
 N         -21.693420      -52.900112      -10.383293
 H         -20.016674      -51.357368      -13.798822
 H         -21.920681      -51.776878      -12.557572
 C         -18.925419      -51.640171      -13.671315
 C         -17.954296      -51.818462      -14.813771
 C         -18.533375      -51.458515      -12.242010
 C         -16.458008      -51.951023      -14.510373
 C         -17.030249      -51.118053      -12.206485
 C         -16.323584      -52.218483      -12.965798
 H         -18.091881      -50.935760      -15.427848
 H         -18.375296      -52.659706      -15.431241
 H         -19.155222      -50.698185      -11.822041
 H         -18.652004      -52.379608      -11.692842
 H         -15.992980      -50.986320      -14.791208
 H         -16.021053      -52.734707      -15.133341
 H         -16.675604      -51.112682      -11.154408
 H         -16.820066      -50.069675      -12.660411
 H         -15.242290      -52.153114      -12.655541
 H         -16.641760      -53.273006      -12.743335
