20
 generated by VMD
 C         -23.177748      -55.070675      -16.823881
 N         -23.630569      -55.006142      -15.796769
 H         -19.427551      -55.361057      -15.512349
 H         -22.561924      -55.464920      -17.722021
 C         -19.202703      -56.062283      -14.797511
 C         -19.557440      -55.926460      -13.392765
 C         -18.424225      -57.298008      -15.239865
 C         -20.340776      -57.170280      -12.878899
 C         -18.905956      -58.517609      -14.593715
 C         -19.905870      -58.523563      -13.443101
 H         -20.028334      -54.947231      -13.077198
 H         -18.570873      -55.886879      -12.866359
 H         -18.499561      -57.313847      -16.376205
 H         -17.308947      -57.289783      -15.134094
 H         -21.370647      -57.075962      -13.275956
 H         -20.364124      -57.178047      -11.814029
 H         -18.066965      -59.211765      -14.367272
 H         -19.436857      -59.038567      -15.351342
 H         -20.821758      -59.091053      -13.795878
 H         -19.468090      -59.135094      -12.665856
