20
 generated by VMD
 C         -12.396335      -27.324400       -2.644968
 N         -13.471508      -27.582294       -2.466659
 H         -10.618176      -27.082901       -3.785797
 H          -9.603148      -26.470184       -5.104315
 C          -9.568014      -26.993277       -4.173732
 C          -8.989003      -28.441961       -4.485107
 C          -8.798011      -26.360100       -3.022784
 C          -7.473865      -28.385490       -4.664124
 C          -7.279507      -26.316801       -3.221960
 C          -6.726535      -27.721909       -3.452107
 H          -9.429145      -28.754675       -5.390276
 H          -9.364568      -29.202703       -3.721883
 H          -9.064888      -25.330931       -2.844476
 H          -8.999957      -26.730881       -2.005577
 H          -7.198768      -27.835835       -5.630375
 H          -7.107466      -29.425882       -4.777514
 H          -6.801687      -26.008369       -2.258021
 H          -7.037260      -25.597221       -3.995438
 H          -5.718275      -27.630857       -3.780416
 H          -6.808706      -28.354252       -2.538204
