20
 generated by VMD
 C         -41.500824     -120.212189      -34.037720
 N         -42.083191     -121.099380      -34.464817
 H         -43.436916     -119.262444      -37.315037
 H         -41.096786     -119.349434      -33.637699
 C         -43.907143     -118.903267      -38.186565
 C         -43.090408     -118.671371      -39.411087
 C         -45.357059     -118.288177      -38.049149
 C         -43.978241     -118.805367      -40.655567
 C         -46.056900     -118.344528      -39.406689
 C         -45.246571     -117.974434      -40.630199
 H         -42.167099     -119.249214      -39.466240
 H         -42.554424     -117.668129      -39.278778
 H         -46.002106     -118.906662      -37.363441
 H         -45.137691     -117.332497      -37.534039
 H         -44.299229     -119.814247      -40.578354
 H         -43.432987     -118.632385      -41.566395
 H         -46.911209     -117.647560      -39.448284
 H         -46.550884     -119.468613      -39.477066
 H         -45.723511     -118.084023      -41.606354
 H         -44.948174     -116.873512      -40.660072
