20
 generated by VMD
 C         -78.190262     -210.557831      -76.055229
 N         -77.093872     -210.953522      -76.342216
 H         -80.380516     -212.909622      -75.255707
 H         -79.177399     -210.302170      -75.770256
 C         -80.195976     -213.424667      -74.262436
 C         -78.773972     -213.452271      -73.614998
 C         -81.311050     -213.997025      -73.449844
 C         -78.721123     -213.230972      -72.095833
 C         -81.177437     -213.721985      -71.925613
 C         -79.866432     -214.093307      -71.385796
 H         -78.259613     -212.640350      -74.135651
 H         -78.238426     -214.432983      -73.850319
 H         -82.256897     -213.660782      -73.926918
 H         -81.387268     -215.117142      -73.565887
 H         -78.598343     -212.164719      -71.823380
 H         -77.741066     -213.661026      -71.661415
 H         -81.985168     -214.317398      -71.461868
 H         -81.315475     -212.606064      -71.801682
 H         -79.747528     -213.984695      -70.214302
 H         -79.622360     -215.107254      -71.675301
