20
 generated by VMD
 C         -58.543945     -161.693405      -56.355900
 N         -58.107735     -160.663483      -56.135109
 H         -59.781494     -165.045792      -55.114475
 H         -58.954384     -162.680801      -56.597561
 C         -60.276356     -164.150589      -54.807652
 C         -59.778217     -163.651459      -53.518017
 C         -61.761818     -164.420685      -55.051834
 C         -60.559319     -162.338699      -53.346630
 C         -62.517097     -163.102234      -54.812283
 C         -62.040676     -162.408859      -53.530029
 H         -58.727951     -163.447830      -53.730118
 H         -60.056583     -164.350266      -52.666801
 H         -61.776039     -164.736725      -56.073444
 H         -62.114197     -165.219360      -54.372246
 H         -60.279839     -161.596619      -54.195911
 H         -60.307621     -161.814865      -52.336754
 H         -63.562187     -163.269455      -54.785027
 H         -62.413403     -162.426315      -55.735207
 H         -62.507710     -161.448715      -53.401390
 H         -62.492344     -162.971893      -52.647812
