20
 generated by VMD
 C         -63.120815     -173.354279      -55.702496
 N         -63.166893     -174.048538      -54.740459
 H         -61.482086     -171.416916      -58.628689
 H         -63.124031     -172.609467      -56.501019
 C         -62.519821     -171.092804      -58.512558
 C         -62.592178     -169.744507      -57.875351
 C         -63.732845     -171.738373      -59.112934
 C         -63.644497     -168.827042      -58.353737
 C         -64.944756     -170.800110      -59.515198
 C         -65.085587     -169.532288      -58.492977
 H         -61.633938     -169.248260      -58.094902
 H         -62.636024     -169.966370      -56.723602
 H         -63.312428     -172.218002      -60.068626
 H         -64.229713     -172.430023      -58.352299
 H         -63.323524     -168.380981      -59.390530
 H         -63.746197     -167.974960      -57.666325
 H         -65.924583     -171.267441      -59.610470
 H         -64.607292     -170.369110      -60.509789
 H         -65.674995     -168.783752      -58.942318
 H         -65.533127     -169.804840      -57.540722
