20
 generated by VMD
 C         -68.233383     -185.334030      -67.668678
 N         -67.621132     -185.344727      -66.679581
 H         -69.531807     -186.717026      -64.872185
 H         -68.882591     -185.197174      -68.578712
 C         -69.743927     -186.718399      -63.841793
 C         -70.351936     -185.494217      -63.234810
 C         -69.566780     -187.912857      -62.988697
 C         -70.193161     -185.265717      -61.710251
 C         -68.995483     -187.498489      -61.593796
 C         -69.912430     -186.528915      -60.829487
 H         -71.384911     -185.503387      -63.447411
 H         -69.874268     -184.619156      -63.605541
 H         -70.595589     -188.168152      -62.855404
 H         -68.893692     -188.619781      -63.532330
 H         -71.054230     -184.784683      -61.299469
 H         -69.299507     -184.622711      -61.645229
 H         -67.873482     -187.255890      -61.708984
 H         -68.984550     -188.392242      -60.956726
 H         -70.819054     -186.828629      -60.540207
 H         -69.441055     -186.291428      -59.879925
