20
 generated by VMD
 C         -29.397444      -74.673111      -19.598190
 N         -30.413172      -74.392921      -20.076828
 H         -25.792065      -73.528320      -18.813936
 H         -28.395477      -74.682411      -18.986795
 C         -25.685936      -73.361900      -19.910723
 C         -25.364536      -74.530807      -20.764727
 C         -25.470514      -71.979042      -20.453817
 C         -25.999313      -74.470039      -22.094238
 C         -26.094046      -71.903122      -21.945387
 C         -25.622871      -73.166008      -22.740704
 H         -25.605524      -75.378494      -20.269201
 H         -24.266497      -74.585373      -20.879910
 H         -25.785946      -71.105438      -19.865299
 H         -24.428669      -71.790451      -20.585321
 H         -27.080976      -74.385803      -22.153145
 H         -25.811533      -75.390808      -22.607521
 H         -26.067629      -70.891907      -22.457264
 H         -27.244751      -72.098404      -21.658442
 H         -26.083931      -73.085724      -23.733509
 H         -24.579458      -73.214027      -22.884068
