20
 generated by VMD
 C         -74.963158     -201.620346      -66.630898
 N         -75.043419     -201.659714      -65.478447
 H         -76.315407     -199.279114      -68.664848
 H         -74.918457     -201.605713      -67.677246
 C         -75.378975     -198.959656      -69.047104
 C         -74.908577     -197.707275      -68.328300
 C         -74.305779     -199.559372      -69.917206
 C         -73.447304     -197.698715      -68.009254
 C         -73.182083     -198.540207      -70.340401
 C         -72.612679     -197.598831      -69.285164
 H         -75.504524     -197.608292      -67.399071
 H         -75.104408     -196.794617      -69.027176
 H         -73.912544     -200.472244      -69.435471
 H         -74.715904     -200.050919      -70.824356
 H         -73.077522     -198.504349      -67.329185
 H         -73.191147     -196.858521      -67.402260
 H         -73.556984     -197.818542      -71.132339
 H         -72.386673     -199.042618      -70.919899
 H         -71.517876     -197.875870      -68.956810
 H         -72.673103     -196.662598      -69.735779
