20
 generated by VMD
 C         -67.972366     -179.450073      -58.739971
 N         -68.081238     -180.002716      -57.723473
 H         -66.641960     -176.497543      -59.498421
 H         -67.863007     -178.857880      -59.617016
 C         -65.770988     -175.948456      -59.788868
 C         -66.012405     -174.933823      -60.842419
 C         -64.401054     -176.343628      -59.631199
 C         -65.065262     -173.752930      -60.842846
 C         -63.536655     -175.120590      -59.432571
 C         -63.568966     -174.105347      -60.642193
 H         -67.169510     -174.619843      -60.978149
 H         -65.787086     -175.477814      -61.761284
 H         -64.300720     -177.025177      -58.797131
 H         -64.080177     -176.901321      -60.494850
 H         -65.287682     -173.124710      -59.845264
 H         -65.304298     -173.085129      -61.739681
 H         -62.502365     -175.517288      -59.282707
 H         -63.792927     -174.564636      -58.502453
 H         -62.903496     -173.210846      -60.532433
 H         -63.297878     -174.739578      -61.461147
