20
 generated by VMD
 C         -63.223965     -174.404144      -56.792000
 N         -62.517414     -175.080399      -56.154526
 H         -66.465179     -173.029861      -58.383041
 H         -63.974216     -173.747833      -57.237633
 C         -65.625702     -172.469742      -58.587826
 C         -65.690117     -171.073441      -58.327007
 C         -64.731750     -172.873428      -59.642353
 C         -64.380753     -170.352692      -58.156689
 C         -63.321320     -172.426620      -59.427303
 C         -63.298611     -170.832733      -59.205006
 H         -66.197052     -171.065628      -57.266472
 H         -66.326584     -170.609558      -59.038540
 H         -64.716499     -173.934586      -59.601059
 H         -65.087181     -172.367157      -60.531738
 H         -64.002716     -170.479660      -57.203442
 H         -64.499695     -169.312576      -58.246281
 H         -62.722267     -172.832520      -60.271595
 H         -62.776352     -172.769241      -58.589901
 H         -62.334503     -170.382721      -58.943916
 H         -63.682049     -170.377045      -60.080929
