20
 generated by VMD
 C         -19.505659      -58.131908      -17.156918
 N         -19.243322      -58.681656      -18.168169
 H         -23.092871      -59.537457      -16.444582
 H         -19.723312      -57.780819      -16.248339
 C         -22.979033      -60.664597      -16.140097
 C         -23.842442      -61.640419      -16.946791
 C         -22.194839      -61.077240      -14.947901
 C         -23.406307      -63.059746      -16.925163
 C         -21.966318      -62.599598      -14.765336
 C         -23.123226      -63.395111      -15.433422
 H         -24.105900      -61.327526      -17.984486
 H         -24.888342      -61.601284      -16.400599
 H         -21.232828      -60.608673      -14.965590
 H         -22.882986      -60.701660      -14.213488
 H         -22.546614      -63.222237      -17.529232
 H         -24.118923      -63.714222      -17.387264
 H         -22.164415      -62.759079      -13.664437
 H         -21.001888      -62.990158      -15.177980
 H         -22.857107      -64.470657      -15.453981
 H         -23.967640      -63.317673      -14.814160
