20
 generated by VMD
 C          -1.209995      -12.959044        1.085637
 N          -0.578405      -12.892709        0.198992
 H          -4.118701      -13.203455        1.681247
 H          -5.587058      -13.109817        0.651520
 C          -4.973606      -13.751954        1.272616
 C          -5.797181      -14.092859        2.582773
 C          -4.432430      -14.976550        0.651277
 C          -6.720949      -15.354887        2.412627
 C          -5.402375      -16.091368        0.411464
 C          -6.014524      -16.516417        1.715704
 H          -6.386158      -13.273690        2.970829
 H          -5.065572      -14.430729        3.333468
 H          -4.058656      -14.686327       -0.316138
 H          -3.642967      -15.408699        1.177815
 H          -7.637366      -15.038689        1.826369
 H          -7.050134      -15.710174        3.406859
 H          -4.977948      -16.938988       -0.134448
 H          -6.205611      -15.673890       -0.247116
 H          -6.754789      -17.325382        1.486073
 H          -5.214455      -16.901684        2.395698
