20
 generated by VMD
 C         -47.984108     -134.439560      -47.311821
 N         -48.005478     -133.762207      -48.236244
 H         -49.764217     -134.230072      -44.208992
 H         -47.672276     -134.806320      -46.313126
 C         -50.284000     -135.145523      -43.907196
 C         -50.561520     -136.309708      -44.817776
 C         -51.148266     -134.982468      -42.793186
 C         -50.818726     -137.643829      -44.086544
 C         -51.360634     -136.299866      -41.967800
 C         -51.670712     -137.431458      -42.847542
 H         -49.774868     -136.584244      -45.489239
 H         -51.497032     -136.197952      -45.398373
 H         -50.751846     -134.102554      -42.197514
 H         -52.116798     -134.608749      -43.089874
 H         -49.842690     -137.971313      -43.775177
 H         -51.284885     -138.513687      -44.657993
 H         -52.158718     -136.146057      -41.260464
 H         -50.458733     -136.429398      -41.312382
 H         -51.781921     -138.354202      -42.322266
 H         -52.642979     -137.306641      -43.112396
