20
 generated by VMD
 C         -10.777657      -37.148720       -8.181804
 N         -10.280041      -36.740845       -7.260647
 H         -12.894190      -39.009857       -7.921392
 H         -14.129822      -39.248592       -6.852930
 C         -13.812790      -39.536552       -7.809026
 C         -13.693585      -41.083427       -7.839028
 C         -14.814762      -39.104191       -8.903235
 C         -15.082263      -41.717327       -7.587689
 C         -16.198378      -39.821945       -8.907279
 C         -16.090399      -41.357780       -8.649068
 H         -12.993900      -41.334515       -7.051995
 H         -13.369268      -41.428123       -8.829350
 H         -14.973659      -38.030994       -8.835216
 H         -14.291583      -39.346516       -9.893139
 H         -15.432168      -41.436779       -6.593615
 H         -15.016864      -42.831207       -7.687666
 H         -16.660839      -39.689304       -9.854865
 H         -16.873323      -39.326283       -8.119189
 H         -17.066286      -41.778564       -8.517225
 H         -15.652725      -41.800278       -9.582026
