20
 generated by VMD
 C         -12.441823      -28.250710       -5.426162
 N         -13.192000      -28.193598       -6.243942
 H         -11.785633      -31.755667       -4.397211
 H         -11.224777      -30.288229       -5.222115
 C         -10.957212      -31.080080       -4.546640
 C          -9.863242      -31.924532       -5.172677
 C         -10.569926      -30.546337       -3.236655
 C          -8.595128      -31.058207       -5.225940
 C          -9.287336      -29.758062       -3.264840
 C          -8.198652      -30.678247       -3.795259
 H         -10.186777      -32.184734       -6.213420
 H          -9.624134      -32.917667       -4.589391
 H         -11.370894      -29.853626       -2.919283
 H         -10.495944      -31.350460       -2.496531
 H          -8.824736      -30.099001       -5.809611
 H          -7.756898      -31.627281       -5.715857
 H          -9.027966      -29.492886       -2.273758
 H          -9.409399      -28.780695       -3.821948
 H          -7.284379      -30.035658       -3.841730
 H          -8.108624      -31.632030       -3.235866
