20
 generated by VMD
 C         -23.176407      -53.720531      -14.700585
 N         -24.225733      -53.357353      -15.066486
 H         -20.442734      -54.968208      -15.374091
 H         -22.312897      -54.208813      -14.231848
 C         -19.735052      -55.430096      -14.513120
 C         -19.165960      -54.231251      -13.625465
 C         -18.702597      -56.439419      -14.948057
 C         -18.245663      -54.800510      -12.529582
 C         -17.938929      -56.975674      -13.726089
 C         -17.240227      -55.873512      -12.993431
 H         -20.044931      -53.771687      -13.162758
 H         -18.624712      -53.532646      -14.273540
 H         -19.265089      -57.302608      -15.413278
 H         -18.041655      -56.092098      -15.686743
 H         -18.861502      -55.387058      -11.799597
 H         -17.731520      -53.954250      -12.057381
 H         -17.179077      -57.728729      -14.086405
 H         -18.609892      -57.528236      -13.077790
 H         -16.786045      -56.309383      -12.111929
 H         -16.529314      -55.455654      -13.646367
