20
 generated by VMD
 C         -12.147455      -31.493082       -8.590495
 N         -12.274018      -30.633120       -7.869833
 H         -11.093846      -34.923641       -7.804558
 H         -12.381908      -34.134911       -6.979375
 C         -11.573831      -34.809299       -6.856231
 C         -10.554710      -34.283939       -5.794498
 C         -12.305686      -36.104015       -6.468601
 C         -11.167880      -34.165081       -4.396603
 C         -12.864528      -35.905621       -5.097452
 C         -11.845712      -35.452045       -3.967433
 H         -10.167898      -33.333611       -6.084215
 H          -9.777700      -35.083263       -5.790210
 H         -13.101007      -36.368183       -7.170584
 H         -11.560006      -36.892727       -6.510732
 H         -11.940450      -33.365700       -4.395755
 H         -10.411603      -33.913071       -3.672502
 H         -13.402312      -36.729267       -4.726858
 H         -13.597045      -34.993095       -5.123860
 H         -12.292290      -35.400421       -2.966981
 H         -11.129416      -36.276375       -3.918714
