20
 generated by VMD
 C         -47.952019     -139.843109      -46.050674
 N         -46.861313     -139.608124      -45.804695
 H         -51.021431     -138.728790      -45.209579
 H         -48.897346     -140.338318      -46.320763
 C         -51.971268     -139.155411      -45.516460
 C         -52.033669     -139.414261      -46.970585
 C         -53.192875     -139.105225      -44.510880
 C         -53.018639     -140.553406      -47.220692
 C         -54.245094     -140.049866      -44.988113
 C         -54.424789     -140.152817      -46.599472
 H         -51.055164     -139.657608      -47.380707
 H         -52.208675     -138.447189      -47.444469
 H         -52.984951     -139.372818      -43.448029
 H         -53.471577     -138.012390      -44.651108
 H         -52.672424     -141.494659      -46.874699
 H         -53.110565     -140.707031      -48.276875
 H         -55.364841     -139.948624      -44.610447
 H         -53.978611     -141.027847      -44.568729
 H         -55.168404     -140.915695      -46.836727
 H         -54.673080     -139.101303      -46.835876
