20
 generated by VMD
 C         -41.561619     -119.607590      -34.327072
 N         -41.492569     -120.269066      -35.273079
 H         -43.349201     -118.578865      -36.881535
 H         -41.617741     -118.882004      -33.595940
 C         -43.831860     -118.339317      -37.801201
 C         -42.958614     -118.334450      -38.988739
 C         -45.192787     -117.604965      -37.757618
 C         -43.755924     -118.642662      -40.265865
 C         -45.996170     -118.176636      -38.991566
 C         -45.093948     -117.854599      -40.221924
 H         -42.183273     -119.080696      -38.812057
 H         -42.518970     -117.413513      -38.907478
 H         -45.801781     -117.904831      -36.896111
 H         -44.983097     -116.443466      -37.716526
 H         -43.908554     -119.753151      -40.210018
 H         -43.150467     -118.410889      -41.101322
 H         -46.996803     -117.550079      -39.070141
 H         -46.241714     -119.258057      -38.661110
 H         -45.745491     -118.254044      -40.963093
 H         -45.090919     -116.731728      -40.234360
