20
 generated by VMD
 C         -60.066521     -169.707169      -55.403900
 N         -59.546104     -168.692093      -55.127151
 H         -63.322166     -170.497574      -56.674553
 H         -60.438923     -170.659698      -55.771843
 C         -63.326595     -169.442795      -56.886967
 C         -62.704754     -169.014648      -58.191315
 C         -63.643082     -168.424744      -55.792812
 C         -63.427261     -167.679230      -58.625683
 C         -64.206161     -167.193390      -56.435791
 C         -63.436440     -166.646347      -57.528893
 H         -62.763618     -169.766342      -59.125816
 H         -61.660423     -168.906235      -58.010647
 H         -64.332039     -168.835144      -54.904903
 H         -62.651920     -168.049408      -55.286400
 H         -64.468506     -167.943344      -58.766869
 H         -62.918266     -167.413910      -59.552361
 H         -64.361450     -166.434296      -55.656136
 H         -65.284508     -167.370056      -56.833469
 H         -63.903042     -165.755096      -58.029354
 H         -62.378872     -166.441879      -57.205048
