20
 generated by VMD
 C         -29.642296      -90.971069      -25.201977
 N         -28.975119      -91.920341      -25.016218
 H         -32.236633      -91.068703      -26.970217
 H         -30.139286      -90.074478      -25.298502
 C         -33.050945      -90.580971      -27.539925
 C         -34.244457      -91.527092      -27.490314
 C         -33.096397      -89.627502      -28.612200
 C         -35.608860      -90.687111      -27.496426
 C         -34.435169      -88.885796      -28.692884
 C         -35.762508      -89.845322      -28.707195
 H         -34.208820      -92.265411      -26.598495
 H         -34.202446      -92.095840      -28.430466
 H         -32.357388      -88.836006      -28.416069
 H         -32.866840      -90.056076      -29.600315
 H         -35.585598      -90.169479      -26.601482
 H         -36.348751      -91.419228      -27.293684
 H         -34.476006      -88.360382      -29.654070
 H         -34.591381      -88.259041      -27.830551
 H         -36.679798      -89.273575      -28.682491
 H         -35.577717      -90.449699      -29.567312
