20
 generated by VMD
 C         -67.577194     -191.828323      -67.323555
 N         -67.119102     -192.631897      -66.644341
 H         -70.289467     -189.424973      -65.930748
 H         -67.873230     -190.860703      -67.821213
 C         -71.125893     -189.838165      -65.419235
 C         -71.695099     -191.078461      -65.903183
 C         -71.470459     -189.261581      -64.085976
 C         -73.148338     -191.276505      -65.388336
 C         -72.874496     -189.648956      -63.578121
 C         -73.219322     -191.094772      -63.814259
 H         -71.066177     -191.924820      -65.568703
 H         -71.731331     -190.989822      -67.009247
 H         -70.710159     -189.685760      -63.335072
 H         -71.403511     -188.141205      -64.255753
 H         -73.612968     -192.185074      -65.796204
 H         -73.729134     -190.565384      -65.974190
 H         -73.527344     -188.837311      -63.881428
 H         -72.894859     -189.448685      -62.523842
 H         -72.444626     -191.588608      -63.212925
 H         -74.358589     -191.125381      -63.546665
