20
 generated by VMD
 C         -29.722679      -91.102478      -25.261385
 N         -28.986897      -92.006821      -24.977438
 H         -32.224567      -90.404663      -26.804056
 H         -30.450359      -90.428307      -25.537449
 C         -33.099342      -90.498558      -27.513931
 C         -34.279240      -91.519836      -27.453318
 C         -33.095158      -89.621605      -28.696230
 C         -35.605999      -90.810341      -27.497816
 C         -34.505959      -88.900749      -28.716785
 C         -35.592373      -89.926865      -28.773499
 H         -34.126976      -91.984207      -26.449444
 H         -34.195210      -92.259842      -28.351427
 H         -32.386288      -88.855804      -28.638180
 H         -32.990719      -90.264343      -29.554171
 H         -35.884781      -90.244713      -26.545120
 H         -36.299026      -91.624359      -27.564486
 H         -34.756207      -88.250061      -29.533392
 H         -34.725990      -88.368248      -27.772213
 H         -36.428074      -89.229782      -28.671986
 H         -35.596317      -90.594284      -29.682869
