20
 generated by VMD
 C         -77.478394     -202.903870      -69.145393
 N         -77.554741     -203.761063      -68.386917
 H         -74.936638     -201.528732      -66.992348
 H         -77.325668     -202.059143      -69.799683
 C         -74.640297     -201.203339      -68.005531
 C         -75.285019     -199.904892      -68.551666
 C         -73.729324     -202.059494      -68.851814
 C         -74.431328     -199.327377      -69.767937
 C         -73.171783     -201.435089      -70.146408
 C         -74.170807     -200.309326      -70.829216
 H         -75.313370     -199.123993      -67.857208
 H         -76.291306     -200.150238      -68.990219
 H         -72.832245     -202.477921      -68.245232
 H         -74.241150     -202.970367      -69.166100
 H         -73.449814     -198.781586      -69.425079
 H         -75.191566     -198.601883      -70.133598
 H         -73.091454     -202.056519      -71.002914
 H         -72.294708     -200.885834      -69.857124
 H         -73.666756     -199.853241      -71.631401
 H         -75.172913     -200.831421      -71.130272
