20
 generated by VMD
 C         -72.637177     -199.313446      -65.379440
 N         -71.707855     -199.580750      -64.751137
 H         -71.263733     -196.086548      -67.148804
 H         -73.534370     -198.926758      -65.883575
 C         -72.143814     -195.699158      -67.613922
 C         -72.800438     -194.483643      -67.217957
 C         -72.677811     -196.440186      -68.780869
 C         -74.123245     -194.175079      -67.872826
 C         -74.181206     -196.494019      -68.956337
 C         -74.971550     -195.369644      -68.202591
 H         -72.255325     -193.509384      -67.337753
 H         -73.024895     -194.655609      -66.131660
 H         -72.299423     -195.877289      -69.706451
 H         -72.317238     -197.506287      -68.771584
 H         -73.879982     -193.696503      -68.786827
 H         -74.586624     -193.325394      -67.335938
 H         -74.601433     -197.507477      -68.699493
 H         -74.330841     -196.379044      -70.016975
 H         -75.988220     -194.968811      -68.720711
 H         -75.181030     -195.804810      -67.272209
