20
 generated by VMD
 C         -59.298882     -152.459290      -50.892437
 N         -60.289452     -153.080566      -50.637672
 H         -57.111244     -151.743408      -48.917530
 H         -58.299450     -152.040588      -51.222431
 C         -56.228741     -151.461472      -49.481800
 C         -55.114323     -152.440231      -49.841099
 C         -55.768188     -149.961838      -49.444645
 C         -54.371971     -152.039200      -51.102764
 C         -54.848820     -149.471268      -50.632229
 C         -53.792931     -150.614410      -50.920784
 H         -55.457794     -153.511429      -49.791622
 H         -54.423538     -152.344971      -49.039303
 H         -56.668022     -149.365784      -49.610531
 H         -55.210876     -149.684387      -48.511929
 H         -55.018276     -152.018784      -51.954269
 H         -53.569408     -152.720078      -51.467587
 H         -54.240887     -148.594070      -50.507160
 H         -55.555481     -149.389709      -51.541355
 H         -53.290695     -150.367233      -51.914722
 H         -52.839409     -150.576859      -50.242668
