20
 generated by VMD
 C         -69.941063     -184.366394      -66.131554
 N         -69.005974     -184.176102      -66.804726
 H         -69.546227     -183.638611      -63.471313
 H         -70.742653     -184.625702      -65.537514
 C         -68.991333     -183.674194      -62.538879
 C         -69.179024     -184.665100      -61.476635
 C         -68.104225     -182.463837      -62.264702
 C         -68.077164     -184.953796      -60.434464
 C         -66.849014     -182.862289      -61.467278
 C         -67.323090     -183.572662      -60.160206
 H         -69.413315     -185.682877      -61.937874
 H         -70.017441     -184.390610      -60.843479
 H         -67.915276     -181.932480      -63.148651
 H         -68.662392     -181.727722      -61.631325
 H         -67.223808     -185.651154      -60.796341
 H         -68.360077     -185.406311      -59.459396
 H         -66.344727     -181.913788      -61.322559
 H         -66.243515     -183.550613      -62.005863
 H         -66.469452     -183.777145      -59.593746
 H         -68.012222     -182.925980      -59.519943
