20
 generated by VMD
 C         -30.485420      -75.526878      -22.668030
 N         -31.361938      -75.097458      -21.982784
 H         -28.542017      -78.063217      -21.216860
 H         -29.798904      -75.433907      -23.401979
 C         -27.763962      -77.365524      -21.504932
 C         -26.785473      -77.946602      -22.426659
 C         -27.659382      -76.081894      -20.731365
 C         -25.838713      -76.878990      -23.006382
 C         -26.770287      -75.112076      -21.490185
 C         -25.513514      -75.792313      -21.967731
 H         -27.204790      -78.530899      -23.270653
 H         -26.182838      -78.764122      -21.816441
 H         -28.715298      -75.686226      -20.687098
 H         -27.269224      -76.350418      -19.710232
 H         -26.367685      -76.500427      -23.872959
 H         -24.918465      -77.292526      -23.419922
 H         -26.538857      -74.367874      -20.660303
 H         -27.344646      -74.654793      -22.293045
 H         -24.869219      -74.989738      -22.388479
 H         -25.061943      -76.142349      -21.087240
