20
 generated by VMD
 C         -12.385769      -27.458710       -4.656312
 N         -13.203534      -28.182108       -4.855636
 H         -10.771147      -30.169039       -2.676938
 H         -10.918268      -28.783175       -3.738673
 C         -10.222825      -29.536121       -3.313790
 C          -9.557257      -30.263502       -4.499902
 C          -9.156090      -28.929178       -2.414346
 C          -8.655843      -29.325077       -5.279650
 C          -8.152608      -27.963774       -3.218761
 C          -7.604918      -28.689360       -4.412653
 H         -10.228513      -30.700621       -5.200978
 H          -9.085708      -31.219629       -4.110606
 H          -9.623837      -28.335588       -1.603307
 H          -8.589258      -29.756348       -1.898649
 H          -9.194995      -28.540123       -5.798951
 H          -8.225064      -29.823656       -6.118508
 H          -7.393782      -27.590078       -2.560600
 H          -8.767549      -27.041182       -3.376264
 H          -6.979904      -28.033548       -5.063752
 H          -7.006259      -29.543978       -4.024580
