20
 generated by VMD
 C         -40.223030     -117.007973      -34.328739
 N         -39.455196     -116.207649      -34.571468
 H         -41.491196     -115.727562      -37.845963
 H         -41.172607     -117.558334      -34.134804
 C         -42.547058     -115.992058      -37.985188
 C         -43.238235     -116.027634      -39.335850
 C         -43.351933     -115.955009      -36.728168
 C         -44.567020     -116.804131      -39.345413
 C         -44.530685     -116.889465      -36.802330
 C         -45.267639     -116.390572      -37.988098
 H         -42.485016     -116.436844      -39.977703
 H         -43.427696     -115.077820      -39.774456
 H         -42.761662     -116.310875      -35.814476
 H         -43.666222     -114.907364      -36.436916
 H         -44.464981     -117.893173      -39.308659
 H         -45.171017     -116.493118      -40.256355
 H         -45.202118     -116.980095      -36.021271
 H         -44.185585     -117.872299      -37.006866
 H         -46.257061     -116.975182      -38.073986
 H         -45.265465     -115.332336      -37.879757
