20
 generated by VMD
 C         -59.830936     -171.749466      -55.259083
 N         -59.574509     -172.834229      -54.834862
 H         -63.159248     -170.060699      -56.164482
 H         -60.151848     -170.723373      -55.528793
 C         -63.486755     -169.487320      -57.000538
 C         -62.660664     -168.253784      -57.399536
 C         -65.058990     -169.310806      -56.967758
 C         -63.112747     -167.889587      -58.758556
 C         -65.420135     -168.838715      -58.340000
 C         -64.605751     -167.713837      -58.855278
 H         -61.510654     -168.563843      -57.305183
 H         -62.863125     -167.534790      -56.704166
 H         -65.354279     -170.276642      -56.619007
 H         -65.177193     -168.566727      -56.277058
 H         -62.752407     -168.635834      -59.478226
 H         -62.585922     -166.914276      -59.053493
 H         -66.446098     -168.400909      -58.253704
 H         -65.445770     -169.765717      -59.002373
 H         -64.674858     -167.573669      -59.935856
 H         -64.933060     -166.807465      -58.306602
