20
 generated by VMD
 C         -79.395287     -204.789520      -70.809044
 N         -80.421791     -205.258987      -70.787064
 H         -76.966774     -203.253815      -68.921112
 H         -78.415871     -204.271088      -70.946510
 C         -75.954475     -203.175507      -69.377823
 C         -75.588783     -201.974289      -70.206230
 C         -74.860687     -204.090775      -68.998146
 C         -74.083298     -201.583359      -70.482857
 C         -73.421928     -203.626862      -69.068466
 C         -73.110275     -202.756607      -70.284546
 H         -75.995651     -201.099625      -69.761993
 H         -76.180229     -201.952560      -71.166420
 H         -75.031799     -204.420593      -67.969864
 H         -75.065437     -204.906754      -69.653419
 H         -73.823639     -200.660812      -69.967964
 H         -73.920845     -201.271378      -71.531227
 H         -72.636475     -204.407471      -68.947632
 H         -73.319229     -203.008652      -68.254478
 H         -72.171257     -202.302078      -70.223495
 H         -73.125031     -203.442429      -71.122757
