20
 generated by VMD
 C          -6.940500      -23.314188        3.150567
 N          -6.404414      -22.636784        2.465454
 H          -7.146862      -21.906322       -0.216961
 H          -8.602516      -22.084572       -1.251076
 C          -7.527758      -21.725910       -1.270716
 C          -6.657946      -22.558290       -2.291984
 C          -7.383898      -20.195784       -1.523363
 C          -7.034663      -22.201317       -3.754465
 C          -7.820145      -19.882084       -2.952819
 C          -7.007868      -20.702234       -3.971011
 H          -6.763699      -23.618822       -2.132385
 H          -5.638726      -22.173590       -2.090024
 H          -7.927704      -19.608362       -0.845104
 H          -6.366698      -19.811655       -1.406475
 H          -8.067582      -22.577532       -3.901864
 H          -6.410731      -22.704247       -4.488191
 H          -7.722023      -18.810574       -3.144397
 H          -8.865477      -20.075462       -3.220198
 H          -7.324776      -20.329405       -4.972228
 H          -5.917324      -20.425381       -3.838234
