20
 generated by VMD
 C         -23.386150      -68.651703      -16.621696
 N         -23.197865      -69.427528      -15.784547
 H         -23.876234      -66.282990      -18.813829
 H         -23.584837      -67.899498      -17.295082
 C         -24.476433      -67.096039      -19.292599
 C         -23.828150      -67.694176      -20.497307
 C         -25.989838      -67.097366      -19.146223
 C         -24.498344      -69.050819      -20.728083
 C         -26.464468      -68.470917      -19.126741
 C         -25.987345      -69.083649      -20.451494
 H         -22.825785      -67.722404      -20.489819
 H         -24.039534      -67.036407      -21.357395
 H         -26.451771      -66.552292      -18.279543
 H         -26.303213      -66.379387      -20.036493
 H         -23.923918      -69.756027      -20.103004
 H         -24.452135      -69.428787      -21.814981
 H         -27.562225      -68.365196      -19.213432
 H         -26.372276      -69.133842      -18.228409
 H         -26.428253      -70.086494      -20.440584
 H         -26.585003      -68.502739      -21.115370
