20
 generated by VMD
 C         -31.093679      -93.556244      -26.129141
 N         -31.605358      -93.810898      -25.105337
 H         -33.848988      -94.227966      -28.009954
 H         -30.774961      -93.334839      -27.148224
 C         -34.074371      -93.227242      -28.282459
 C         -35.515205      -92.925255      -27.964468
 C         -33.322643      -92.580154      -29.340895
 C         -36.004784      -91.488533      -28.464670
 C         -33.822502      -91.109924      -29.549429
 C         -35.392948      -91.005394      -29.762167
 H         -35.444302      -92.935326      -26.860949
 H         -36.316822      -93.626900      -28.286169
 H         -32.291664      -92.468231      -29.103228
 H         -33.279488      -93.228386      -30.195009
 H         -35.716908      -90.898941      -27.550108
 H         -37.056602      -91.477036      -28.416372
 H         -33.462585      -90.740044      -30.541821
 H         -33.399494      -90.394203      -28.816456
 H         -35.545326      -89.928116      -30.009092
 H         -35.738037      -91.675446      -30.646986
