20
 generated by VMD
 C         -11.253188      -33.726818       -8.461094
 N         -10.881117      -33.194435       -9.373287
 H         -11.598496      -36.782883       -7.945041
 H         -12.272421      -36.174892       -6.427389
 C         -12.380471      -36.974480       -7.205650
 C         -11.975910      -38.277592       -6.505421
 C         -13.823544      -36.946636       -7.645932
 C         -12.893779      -38.541946       -5.295873
 C         -14.661878      -37.140972       -6.416232
 C         -14.359497      -38.509136       -5.745916
 H         -10.976163      -38.161366       -6.109598
 H         -12.091869      -39.171062       -7.143898
 H         -14.057945      -36.014767       -8.158165
 H         -13.963012      -37.807152       -8.291626
 H         -12.727040      -37.787106       -4.541327
 H         -12.622647      -39.566307       -4.960779
 H         -15.767444      -37.115261       -6.701125
 H         -14.545613      -36.304127       -5.701737
 H         -15.004635      -38.690681       -4.889689
 H         -14.658093      -39.270012       -6.530768
