20
 generated by VMD
 C          -7.044870      -23.281359        2.945148
 N          -6.212671      -22.608700        2.577425
 H          -6.779670      -21.511312       -0.087416
 H          -8.233092      -21.958073       -1.033418
 C          -7.227644      -21.504730       -1.098317
 C          -6.479616      -22.368139       -2.166437
 C          -7.359543      -20.030825       -1.580545
 C          -7.077811      -22.155006       -3.549181
 C          -7.955355      -19.816225       -3.006465
 C          -7.136614      -20.690298       -3.982638
 H          -6.555368      -23.402227       -1.936866
 H          -5.427464      -21.906132       -2.196441
 H          -7.824299      -19.396305       -0.820884
 H          -6.399575      -19.522308       -1.611040
 H          -8.023009      -22.689941       -3.608639
 H          -6.473607      -22.689890       -4.296644
 H          -7.994243      -18.754173       -3.367762
 H          -9.037178      -20.057224       -3.132527
 H          -7.661292      -20.603210       -4.945822
 H          -6.122566      -20.246243       -4.143315
