20
 generated by VMD
 C          -9.620369      -25.014482        0.632930
 N         -10.635686      -25.457989        0.632256
 H          -6.320740      -23.423227       -0.774558
 H          -7.952648      -23.044168       -1.191095
 C          -6.962159      -23.378576       -1.626297
 C          -7.149181      -24.685923       -2.372687
 C          -6.372969      -22.330856       -2.606668
 C          -8.087436      -24.620104       -3.579688
 C          -7.280294      -22.240549       -3.782264
 C          -7.735657      -23.443743       -4.511191
 H          -7.558331      -25.491011       -1.749161
 H          -6.215976      -25.139528       -2.601633
 H          -6.294277      -21.341171       -2.083169
 H          -5.375823      -22.596170       -2.904713
 H          -9.147823      -24.488163       -3.178707
 H          -8.195508      -25.579956       -4.130740
 H          -6.691724      -21.637167       -4.487566
 H          -8.154021      -21.638327       -3.513618
 H          -8.623107      -23.119722       -5.118267
 H          -6.891816      -23.759254       -5.121240
