20
 generated by VMD
 C         -10.434540      -25.382191       -0.801442
 N         -11.280307      -24.682024       -0.555101
 H          -6.590716      -25.443756       -0.947112
 H          -8.329978      -25.285812       -1.382940
 C          -7.253286      -25.180807       -1.780016
 C          -7.038222      -26.005648       -2.986084
 C          -7.025708      -23.704422       -2.036899
 C          -7.888856      -25.507839       -4.124942
 C          -7.865595      -23.197796       -3.141649
 C          -7.629256      -23.992691       -4.433332
 H          -7.297442      -27.051899       -2.803782
 H          -5.920499      -26.051172       -3.267711
 H          -7.157728      -23.139132       -1.117926
 H          -5.986365      -23.563425       -2.280792
 H          -8.941879      -25.700182       -3.939843
 H          -7.641804      -26.106951       -4.985797
 H          -7.555547      -22.154324       -3.368118
 H          -8.920886      -23.249844       -2.871598
 H          -8.408065      -23.670980       -5.142589
 H          -6.608560      -23.722925       -4.698967
