20
 generated by VMD
 C         -60.728836     -153.278519      -52.272690
 N         -61.211815     -153.873764      -51.335220
 H         -57.416954     -154.046539      -51.579327
 H         -60.329105     -152.856598      -53.181011
 C         -56.715649     -153.394379      -51.055679
 C         -56.169754     -153.746979      -49.695179
 C         -56.259342     -152.199234      -51.787670
 C         -54.592247     -153.641479      -49.849358
 C         -54.749538     -152.030273      -51.640907
 C         -54.169094     -152.235931      -50.288342
 H         -56.307293     -154.712082      -49.252209
 H         -56.563763     -152.944427      -49.039536
 H         -56.587948     -152.203384      -52.826015
 H         -56.759106     -151.321808      -51.352383
 H         -54.160557     -154.400360      -50.503387
 H         -54.113541     -153.828690      -48.857426
 H         -54.496719     -150.960876      -52.027515
 H         -54.319241     -152.821274      -52.286507
 H         -52.994579     -152.253128      -50.362717
 H         -54.349033     -151.557693      -49.494495
