20
 generated by VMD
 C         -40.685703     -100.226791      -30.193480
 N         -40.959618     -100.379120      -29.069263
 H         -37.584187     -100.210564      -30.727049
 H         -40.521946      -99.871132      -31.252478
 C         -36.452812      -99.883316      -30.781509
 C         -36.005814      -99.839859      -32.250988
 C         -35.311275      -99.997932      -29.735256
 C         -35.069736      -98.582390      -32.524929
 C         -34.396648      -98.818520      -30.044239
 C         -33.888390      -98.721748      -31.537601
 H         -36.791882      -99.912178      -32.965237
 H         -35.343048     -100.738747      -32.374496
 H         -35.656830      -99.888680      -28.759428
 H         -34.696064     -100.928581      -29.823877
 H         -35.645412      -97.692894      -32.307674
 H         -34.873371      -98.530891      -33.549545
 H         -33.569080      -99.003990      -29.405523
 H         -35.080715      -97.956078      -29.806677
 H         -33.351254      -97.685112      -31.599150
 H         -33.282001      -99.621597      -31.706959
