20
 generated by VMD
 C         -11.275131      -33.230473       -8.560918
 N         -10.621335      -33.890640       -9.228104
 H         -12.698284      -34.220539       -6.833959
 H         -13.073703      -34.767197       -5.217434
 C         -12.839350      -35.162907       -6.195593
 C         -11.649945      -36.031204       -6.291589
 C         -14.093916      -35.879574       -6.673317
 C         -11.869689      -37.398876       -5.576383
 C         -14.345685      -37.218571       -5.912670
 C         -13.147511      -38.134449       -5.839025
 H         -10.788131      -35.531036       -5.903481
 H         -11.411716      -36.227287       -7.350299
 H         -14.933363      -35.225182       -6.465382
 H         -14.071297      -36.133068       -7.721148
 H         -11.782290      -37.127045       -4.547575
 H         -10.988912      -38.035789       -5.677842
 H         -15.332880      -37.744549       -6.191261
 H         -14.453993      -36.890270       -4.912550
 H         -13.304915      -38.887974       -5.071907
 H         -13.175458      -38.632828       -6.861923
