20
 generated by VMD
 C         -67.555908     -179.599274      -58.480240
 N         -68.499031     -180.226654      -58.316254
 H         -66.838425     -176.461197      -59.801918
 H         -66.705978     -178.984283      -58.708694
 C         -66.002495     -175.990005      -60.029743
 C         -66.003517     -175.105194      -61.242538
 C         -64.769272     -176.510696      -59.439335
 C         -65.046234     -173.955032      -60.967926
 C         -63.647587     -175.477264      -59.309219
 C         -63.630352     -174.565094      -60.621849
 H         -67.072586     -174.647903      -61.340958
 H         -65.770561     -175.848145      -61.979301
 H         -64.990318     -176.887253      -58.378304
 H         -64.417465     -177.370987      -60.007431
 H         -65.407272     -173.472153      -60.128296
 H         -64.921120     -173.373779      -61.858162
 H         -62.808941     -176.141129      -59.340099
 H         -63.534061     -174.967987      -58.352249
 H         -63.046032     -173.660400      -60.380058
 H         -63.123592     -175.159378      -61.369633
