20
 generated by VMD
 C         -29.062292      -88.147919      -25.147003
 N         -28.771128      -87.639351      -26.191164
 H         -31.325609      -89.948097      -27.167786
 H         -29.418112      -88.462685      -24.223305
 C         -32.292225      -89.453621      -27.065434
 C         -32.739857      -89.169853      -25.680031
 C         -33.170322      -89.159645      -28.237352
 C         -33.752232      -88.008011      -25.531591
 C         -34.016747      -87.934525      -28.113060
 C         -34.760864      -87.914093      -26.707911
 H         -31.952827      -88.929184      -24.976727
 H         -33.135342      -90.106125      -25.218700
 H         -32.621017      -88.922020      -29.136364
 H         -33.804146      -90.082489      -28.418507
 H         -33.131519      -87.035606      -25.535824
 H         -34.302578      -88.133354      -24.544918
 H         -34.708313      -87.928368      -28.978836
 H         -33.274155      -87.191391      -28.243019
 H         -35.481899      -86.998093      -26.563925
 H         -35.460640      -88.824471      -26.643908
