20
 generated by VMD
 C         -49.542568     -127.686844      -38.996769
 N         -49.924942     -126.776382      -38.396526
 H         -47.061501     -125.632690      -40.577187
 H         -48.953575     -128.445572      -39.525269
 C         -46.197777     -124.955406      -40.719631
 C         -44.783886     -125.497612      -40.249241
 C         -46.324772     -123.475746      -40.891991
 C         -43.631496     -124.756516      -40.927387
 C         -45.158367     -122.747734      -41.468834
 C         -43.800304     -123.282158      -41.104591
 H         -44.779045     -126.540932      -40.398125
 H         -44.711769     -125.275406      -39.192841
 H         -47.339386     -123.392357      -41.202484
 H         -46.316593     -123.121246      -39.779205
 H         -43.379982     -125.246849      -41.895779
 H         -42.716652     -124.909103      -40.299679
 H         -45.199207     -121.622002      -41.206398
 H         -45.445457     -122.787231      -42.522995
 H         -43.001411     -122.787254      -41.748116
 H         -43.631077     -122.840996      -40.130489
