20
 generated by VMD
 C         -29.879877      -79.894539      -26.314375
 N         -29.460903      -80.002808      -27.370413
 H         -28.255886      -82.753181      -24.987204
 H         -30.249586      -79.836189      -25.216944
 C         -29.164238      -82.908554      -24.464840
 C         -29.226707      -82.424408      -23.033981
 C         -29.995510      -84.148834      -24.828545
 C         -30.552706      -82.484909      -22.378210
 C         -31.354500      -84.127708      -24.097980
 C         -31.239170      -83.929810      -22.553833
 H         -28.754244      -81.444954      -23.071829
 H         -28.633423      -83.255806      -22.573055
 H         -30.219238      -84.164597      -25.920807
 H         -29.482916      -85.059753      -24.487329
 H         -31.153496      -81.723572      -22.944262
 H         -30.441156      -82.291794      -21.313452
 H         -31.840923      -85.096413      -24.294630
 H         -31.929621      -83.315193      -24.413319
 H         -32.237549      -83.861191      -22.066206
 H         -30.604090      -84.793922      -22.076143
