20
 generated by VMD
 C         -26.882034      -72.059456      -17.521631
 N         -27.402414      -73.098450      -17.305866
 H         -24.623798      -70.127197      -18.653799
 H         -26.608402      -71.123772      -17.775770
 C         -25.022404      -70.521278      -19.591120
 C         -24.229115      -71.576378      -20.298603
 C         -25.711176      -69.432495      -20.483015
 C         -25.162395      -72.141685      -21.448799
 C         -26.691343      -70.092812      -21.535141
 C         -25.881866      -71.182739      -22.319973
 H         -24.030291      -72.527550      -19.583206
 H         -23.232590      -71.287125      -20.767025
 H         -26.190666      -68.757751      -19.764067
 H         -24.908867      -68.940460      -21.125198
 H         -25.943644      -72.859566      -21.061329
 H         -24.501890      -72.760803      -22.066425
 H         -26.969849      -69.316818      -22.220551
 H         -27.533419      -70.454552      -21.017246
 H         -26.650845      -71.698540      -22.966965
 H         -25.130539      -70.546951      -22.869080
