20
 generated by VMD
 C         -25.872650      -71.845093      -17.164860
 N         -26.685402      -72.470909      -16.604727
 H         -24.261595      -69.014023      -18.799297
 H         -25.247080      -71.108368      -17.687115
 C         -24.724554      -69.509590      -19.693548
 C         -24.101221      -70.709442      -20.297512
 C         -25.775612      -68.842201      -20.461292
 C         -25.118401      -71.532135      -21.144730
 C         -26.711084      -69.651001      -21.225554
 C         -26.081347      -70.654144      -22.043259
 H         -23.689264      -71.329544      -19.477354
 H         -23.209675      -70.332031      -21.024927
 H         -26.328178      -68.176453      -19.748798
 H         -25.303308      -68.173836      -21.147327
 H         -25.641909      -72.159927      -20.428501
 H         -24.571012      -72.251328      -21.843220
 H         -27.172171      -69.067314      -22.003033
 H         -27.591209      -69.951530      -20.701309
 H         -26.718124      -71.374496      -22.617928
 H         -25.491283      -70.033691      -22.761156
