20
 generated by VMD
 C         -47.900906     -125.138016      -38.983501
 N         -47.406693     -126.124435      -38.568851
 H         -45.797161     -123.055229      -37.795418
 H         -48.267464     -124.112366      -39.127651
 C         -45.447319     -123.160568      -38.838211
 C         -44.286148     -123.974716      -39.392685
 C         -45.591614     -121.890488      -39.750977
 C         -44.490486     -124.429764      -40.859154
 C         -45.909122     -122.222557      -41.134018
 C         -44.795601     -123.193832      -41.723351
 H         -44.193134     -124.958664      -38.758018
 H         -43.381474     -123.369469      -39.195190
 H         -46.277477     -121.129028      -39.391846
 H         -44.533497     -121.434326      -39.680138
 H         -45.343773     -125.075691      -40.870735
 H         -43.543671     -124.943588      -41.092152
 H         -45.879204     -121.307449      -41.581512
 H         -46.810783     -122.722435      -41.191391
 H         -45.135983     -123.556190      -42.764034
 H         -43.853752     -122.613869      -41.845387
