20
 generated by VMD
 C         -50.173431     -145.144958      -44.757835
 N         -49.530540     -144.223267      -44.362328
 H         -52.946114     -143.106491      -45.781986
 H         -50.884411     -145.997620      -44.916862
 C         -53.261959     -142.675446      -46.741623
 C         -52.435822     -142.470642      -47.986027
 C         -54.542313     -141.863998      -46.733944
 C         -53.362759     -142.844025      -49.217300
 C         -55.418411     -142.094284      -47.992046
 C         -54.602001     -141.986557      -49.252647
 H         -51.620869     -143.202271      -47.916050
 H         -52.194283     -141.452759      -48.149151
 H         -55.145241     -142.003174      -45.868160
 H         -54.215702     -140.906708      -46.679874
 H         -53.734005     -143.836578      -49.180290
 H         -52.754436     -142.754318      -50.090801
 H         -56.279072     -141.422302      -48.040161
 H         -55.842789     -143.033279      -47.948391
 H         -55.163986     -142.335815      -50.074562
 H         -54.367683     -140.988541      -49.300861
