20
 generated by VMD
 C         -40.157822     -107.227997      -37.807655
 N         -39.190132     -106.593620      -37.854286
 H         -38.968975     -108.244080      -34.604000
 H         -41.143471     -107.688980      -37.620491
 C         -39.523602     -108.970955      -34.110134
 C         -38.813835     -110.174171      -33.365013
 C         -41.097637     -108.940369      -34.238400
 C         -39.717018     -110.843750      -32.387291
 C         -41.780861     -109.604668      -33.067318
 C         -41.179005     -110.923080      -32.786079
 H         -37.869625     -109.957397      -32.909786
 H         -38.520939     -110.841759      -34.190159
 H         -41.431145     -107.844467      -34.286461
 H         -41.335030     -109.424591      -35.182327
 H         -39.786373     -110.290779      -31.412809
 H         -39.266670     -111.773140      -32.260677
 H         -42.882137     -109.818344      -33.239300
 H         -41.875393     -108.791374      -32.225330
 H         -41.772579     -111.256111      -31.894650
 H         -41.385975     -111.693192      -33.636185
