20
 generated by VMD
 C         -49.211048     -126.918213      -39.887306
 N         -50.084656     -127.195175      -39.161667
 H         -46.622734     -127.119499      -42.755039
 H         -48.639355     -126.718353      -40.776463
 C         -46.242283     -126.445930      -41.876221
 C         -45.313931     -126.835930      -40.852234
 C         -46.670010     -125.015678      -41.773132
 C         -44.166759     -125.815979      -40.387104
 C         -45.613373     -123.918640      -41.427479
 C         -44.727001     -124.386467      -40.197544
 H         -44.967491     -127.802162      -41.108974
 H         -45.826763     -127.068558      -39.896526
 H         -47.230038     -124.817101      -42.661232
 H         -47.517570     -124.930565      -41.055759
 H         -43.320042     -125.914787      -41.052910
 H         -43.762897     -126.201294      -39.435207
 H         -46.240192     -123.057907      -41.241470
 H         -45.021095     -123.759125      -42.394402
 H         -44.028759     -123.615227      -39.915283
 H         -45.559914     -124.385735      -39.451920
