20
 generated by VMD
 C         -67.761513     -185.845200      -67.120987
 N         -68.715126     -185.699127      -67.773430
 H         -68.394318     -188.207870      -64.329903
 H         -66.864647     -185.957291      -66.525330
 C         -69.227699     -187.877228      -63.796917
 C         -68.980545     -186.594604      -63.104527
 C         -70.706490     -188.409134      -63.769550
 C         -69.475502     -186.667343      -61.606339
 C         -71.291275     -188.275635      -62.376369
 C         -70.864876     -187.098572      -61.451111
 H         -69.551483     -185.891602      -63.672035
 H         -67.901581     -186.463135      -63.022079
 H         -71.263405     -187.859344      -64.561348
 H         -70.625633     -189.483948      -64.006363
 H         -69.323891     -185.702332      -61.134491
 H         -68.695869     -187.273270      -61.055897
 H         -71.097618     -189.195328      -61.882771
 H         -72.359375     -188.236267      -62.309650
 H         -71.691193     -186.317276      -61.703690
 H         -71.086502     -187.218384      -60.345337
