20
 generated by VMD
 C         -17.442015      -48.158180       -6.940497
 N         -16.896734      -47.205242       -6.730533
 H         -16.686056      -48.457401      -10.448641
 H         -15.577847      -48.657475      -11.736395
 C         -16.337503      -47.959667      -11.390841
 C         -15.716084      -46.646122      -10.953153
 C         -17.595518      -47.912395      -12.293311
 C         -15.531454      -45.778358      -12.218638
 C         -17.391615      -47.062607      -13.498060
 C         -16.838907      -45.718815      -13.014561
 H         -14.747375      -46.800026      -10.430755
 H         -16.460302      -46.154118      -10.289474
 H         -17.925863      -48.968258      -12.605055
 H         -18.358496      -47.408340      -11.633496
 H         -14.648108      -46.063156      -12.801146
 H         -15.401957      -44.760899      -11.811066
 H         -18.292780      -46.985054      -14.064271
 H         -16.645519      -47.391220      -14.213537
 H         -16.689684      -45.109478      -13.887486
 H         -17.558256      -45.250088      -12.415519
