20
 generated by VMD
 C         -11.249433      -33.840397       -9.324587
 N         -11.325949      -33.988277       -8.249370
 H         -11.451430      -37.544197       -8.031503
 H         -12.119007      -36.736992       -6.595507
 C         -12.268252      -37.542213       -7.299552
 C         -12.193556      -38.901459       -6.572723
 C         -13.636219      -37.188801       -7.954816
 C         -13.323624      -38.977139       -5.504335
 C         -14.806165      -37.446373       -6.967448
 C         -14.691620      -38.784111       -6.162914
 H         -11.232249      -39.055889       -6.048668
 H         -12.258181      -39.747078       -7.251186
 H         -13.608659      -36.172798       -8.296194
 H         -13.752279      -37.848438       -8.806492
 H         -13.207700      -38.295624       -4.660861
 H         -13.259594      -39.968143       -5.102055
 H         -15.714002      -37.445889       -7.571787
 H         -14.868495      -36.577724       -6.268253
 H         -15.412509      -38.726543       -5.291615
 H         -15.017160      -39.648190       -6.742498
