20
 generated by VMD
 C         -59.097553     -152.238159      -50.738575
 N         -59.655426     -153.090668      -50.090279
 H         -57.016582     -151.296463      -48.926144
 H         -58.467541     -151.592651      -51.361156
 C         -56.235863     -150.976334      -49.585747
 C         -55.294304     -152.135437      -49.888988
 C         -55.547241     -149.609467      -49.170605
 C         -54.494934     -151.732819      -51.153000
 C         -54.769245     -149.283768      -50.482018
 C         -53.765331     -150.321350      -51.067223
 H         -55.733898     -153.062927      -49.964230
 H         -54.602436     -152.189392      -49.030231
 H         -56.364487     -148.836609      -49.107803
 H         -54.980831     -149.609421      -48.229866
 H         -55.116726     -151.885345      -52.060623
 H         -53.745564     -152.478256      -51.342941
 H         -54.277489     -148.203903      -50.320175
 H         -55.555290     -149.250458      -51.219952
 H         -53.436783     -150.143539      -52.144073
 H         -52.931992     -150.510651      -50.486179
