20
 generated by VMD
 C         -27.148941      -72.787277      -17.865400
 N         -27.937111      -73.334915      -17.186029
 H         -24.664358      -70.471375      -18.709408
 H         -26.392223      -72.046738      -18.424459
 C         -25.055172      -70.606529      -19.721012
 C         -24.358833      -71.776695      -20.466894
 C         -25.538185      -69.434357      -20.665075
 C         -25.383379      -72.441467      -21.280809
 C         -26.471798      -70.197609      -21.672400
 C         -25.825104      -71.403069      -22.387825
 H         -23.896841      -72.317932      -19.538767
 H         -23.523123      -71.299812      -21.013205
 H         -26.183105      -68.718414      -20.081032
 H         -24.619049      -68.949310      -21.102652
 H         -26.277506      -72.821602      -20.783869
 H         -24.873301      -73.291687      -21.786934
 H         -26.929232      -69.545860      -22.516323
 H         -27.379873      -70.531731      -21.042738
 H         -26.493074      -71.871567      -23.044987
 H         -24.883204      -71.143173      -22.837940
