20
 generated by VMD
 C         -79.553703     -206.837723      -74.975731
 N         -79.934677     -207.651001      -74.216728
 H         -77.084442     -207.373138      -73.204605
 H         -78.993004     -206.193253      -75.709190
 C         -76.889404     -207.905426      -72.200180
 C         -75.578728     -207.693268      -71.493889
 C         -77.840469     -208.936966      -71.720299
 C         -75.886665     -207.534927      -70.031822
 C         -78.093391     -208.736588      -70.175682
 C         -76.821823     -208.740051      -69.400497
 H         -75.010643     -206.883591      -71.985466
 H         -75.010765     -208.598099      -71.379990
 H         -78.795235     -208.839462      -72.343781
 H         -77.467117     -209.962891      -71.911285
 H         -76.600609     -206.764862      -69.942795
 H         -75.061501     -207.466736      -69.359558
 H         -78.695320     -209.585648      -69.789566
 H         -78.712677     -207.884247      -70.112328
 H         -77.123444     -208.391098      -68.427330
 H         -76.212654     -209.678253      -69.265793
