20
 generated by VMD
 C         -79.163521     -205.726486      -73.694504
 N         -79.163109     -206.908524      -73.674904
 H         -78.759079     -206.296356      -70.993629
 H         -78.931297     -204.610397      -73.740166
 C         -77.767715     -206.299042      -70.554733
 C         -76.765762     -205.414322      -71.298599
 C         -77.195831     -207.522186      -69.785667
 C         -75.330505     -205.433578      -70.754639
 C         -75.785431     -207.316971      -69.243996
 C         -74.794456     -206.694855      -70.217278
 H         -77.203903     -204.471848      -71.524925
 H         -76.492775     -205.866028      -72.187668
 H         -77.951752     -207.909225      -69.092102
 H         -77.104919     -208.330872      -70.574089
 H         -75.109283     -204.708008      -70.010712
 H         -74.659416     -205.155502      -71.594864
 H         -75.294930     -208.333038      -69.115501
 H         -75.781563     -206.804382      -68.327850
 H         -73.762543     -206.636520      -69.841751
 H         -74.574112     -207.291992      -71.156845
