20
 generated by VMD
 C         -75.608788     -202.229477      -66.224960
 N         -76.468651     -202.723969      -65.660057
 H         -75.820976     -200.197083      -69.003845
 H         -74.979401     -201.770828      -67.004417
 C         -74.947685     -199.615219      -69.096138
 C         -74.854012     -198.155609      -68.585953
 C         -73.878380     -199.907578      -70.003319
 C         -73.369804     -197.732590      -68.321960
 C         -73.406303     -198.631760      -70.686485
 C         -72.626114     -197.802933      -69.661522
 H         -75.333794     -197.999329      -67.578697
 H         -75.326851     -197.540878      -69.291985
 H         -73.053398     -200.480011      -69.621559
 H         -74.250732     -200.488113      -70.771126
 H         -72.847649     -198.452438      -67.686455
 H         -73.298286     -196.639496      -68.061707
 H         -74.148682     -198.027802      -71.234451
 H         -72.814636     -199.145309      -71.515335
 H         -71.504005     -198.234344      -69.518219
 H         -72.547134     -196.813324      -70.074524
