20
 generated by VMD
 C         -13.041333      -28.693113       -5.824927
 N         -12.724902      -27.722281       -5.355646
 H         -11.306608      -31.274048       -3.393191
 H         -11.251971      -29.654331       -4.363800
 C         -10.704514      -30.480324       -3.852862
 C          -9.782745      -31.147179       -4.844483
 C          -9.942696      -29.741468       -2.669297
 C          -8.706944      -30.247803       -5.310786
 C          -8.648467      -29.022957       -3.124760
 C          -7.862699      -29.710209       -4.193035
 H         -10.452410      -31.404303       -5.734045
 H          -9.272830      -32.004822       -4.492126
 H         -10.552519      -29.028530       -2.092332
 H          -9.610710      -30.535549       -1.930719
 H          -9.217370      -29.441750       -5.834657
 H          -8.037185      -30.796066       -5.995213
 H          -8.003009      -28.871908       -2.210064
 H          -9.011117      -28.097952       -3.497820
 H          -7.051758      -29.139511       -4.561874
 H          -7.308109      -30.602682       -3.802671
