20
 generated by VMD
 C         -79.016159     -207.409180      -75.431129
 N         -80.057098     -206.970947      -75.495461
 H         -77.587257     -209.005264      -73.332870
 H         -78.051666     -207.696198      -75.219604
 C         -77.464699     -209.044861      -72.210861
 C         -76.336098     -208.180710      -71.717056
 C         -78.175430     -210.069824      -71.511108
 C         -76.323608     -208.147110      -70.216667
 C         -78.267288     -209.818451      -70.043022
 C         -76.871811     -209.347473      -69.510834
 H         -76.309967     -207.253586      -72.287094
 H         -75.520264     -208.769226      -72.068726
 H         -79.188629     -210.216507      -71.924561
 H         -77.636703     -211.066345      -71.639763
 H         -76.919983     -207.238892      -69.893761
 H         -75.334152     -207.939865      -69.733414
 H         -78.868362     -210.624786      -69.496788
 H         -78.898827     -208.946167      -70.039429
 H         -76.880043     -208.969223      -68.475456
 H         -76.252808     -210.271729      -69.594116
