20
 generated by VMD
 C         -29.157278      -81.289055      -27.576567
 N         -29.901892      -80.367142      -27.609037
 H         -28.475248      -82.688324      -23.945517
 H         -28.481136      -82.045174      -27.680662
 C         -29.377834      -83.196167      -23.786327
 C         -29.754072      -83.545525      -22.437162
 C         -29.958736      -83.909348      -24.908297
 C         -31.205393      -83.831078      -22.224403
 C         -31.465540      -83.856636      -24.726641
 C         -31.822460      -84.619804      -23.446409
 H         -29.532660      -82.723030      -21.793417
 H         -29.113863      -84.431808      -21.983131
 H         -29.795660      -83.324394      -25.794722
 H         -29.429407      -84.911407      -25.064936
 H         -31.772612      -82.807472      -22.180859
 H         -31.439268      -84.187996      -21.215122
 H         -31.948591      -84.296875      -25.693333
 H         -31.779953      -82.719849      -24.709793
 H         -32.872368      -84.846786      -23.306303
 H         -31.259230      -85.607857      -23.629362
