20
 generated by VMD
 C         -38.246510      -98.944168      -27.282085
 N         -37.614952      -98.699203      -26.335623
 H         -37.021534      -96.605049      -29.797054
 H         -38.867496      -99.039253      -28.132893
 C         -35.912170      -96.720421      -29.982220
 C         -35.538696      -97.404610      -31.306265
 C         -34.920307      -95.948540      -29.209946
 C         -34.574562      -96.465912      -32.172726
 C         -34.158604      -95.040558      -30.221922
 C         -33.471256      -95.698120      -31.320869
 H         -36.516087      -97.528839      -31.873108
 H         -35.135826      -98.368797      -31.087709
 H         -35.481846      -95.393570      -28.413452
 H         -34.167896      -96.480347      -28.614653
 H         -35.253601      -95.809929      -32.776825
 H         -34.191509      -97.210571      -32.829277
 H         -33.449501      -94.335884      -29.826647
 H         -34.909401      -94.306389      -30.755070
 H         -32.936607      -95.022453      -32.091301
 H         -32.672886      -96.289299      -30.853580
