20
 generated by VMD
 C         -20.583160      -64.231384      -16.529703
 N         -19.797132      -63.492203      -16.979202
 H         -23.484118      -63.448124      -17.321857
 H         -21.457659      -64.651825      -16.027136
 C         -23.913839      -64.301407      -17.755718
 C         -24.561197      -64.334686      -19.130949
 C         -24.304691      -65.302521      -16.683727
 C         -24.721554      -65.780487      -19.516201
 C         -24.698063      -66.675774      -17.159782
 C         -25.465969      -66.679428      -18.455318
 H         -24.010744      -63.850830      -19.864250
 H         -25.536829      -63.847454      -19.212505
 H         -23.549997      -65.416039      -15.954803
 H         -25.037155      -64.812881      -16.024055
 H         -23.768126      -66.240555      -19.754974
 H         -25.417076      -65.841187      -20.371365
 H         -25.368338      -67.107033      -16.432444
 H         -23.892933      -67.432648      -17.241123
 H         -25.660027      -67.679047      -18.765684
 H         -26.361525      -66.071838      -18.267195
