20
 generated by VMD
 C         -47.706535     -138.037949      -45.865597
 N         -47.247570     -137.812531      -46.909687
 H         -50.432549     -137.598373      -44.448311
 H         -48.075901     -138.401810      -44.944565
 C         -51.256248     -138.185974      -44.839336
 C         -51.436985     -138.633743      -46.163944
 C         -52.555828     -137.762360      -44.163200
 C         -52.472729     -139.745834      -46.261486
 C         -53.573650     -138.791885      -44.200218
 C         -53.809978     -139.300964      -45.684235
 H         -50.527912     -138.905106      -46.558163
 H         -51.681812     -137.772980      -46.785881
 H         -52.385315     -137.335785      -43.143700
 H         -52.936291     -136.912277      -44.747967
 H         -52.281303     -140.694229      -45.920006
 H         -52.571331     -139.737320      -47.335594
 H         -54.580204     -138.444778      -43.716129
 H         -53.198124     -139.609604      -43.637386
 H         -54.524349     -140.177124      -45.575455
 H         -54.225731     -138.513107      -46.290504
