20
 generated by VMD
 C         -78.987358     -204.255478      -70.452789
 N         -79.940033     -204.822052      -70.604485
 H         -76.714882     -203.413162      -68.609680
 H         -78.041428     -203.670685      -70.510406
 C         -75.828796     -203.195389      -69.211098
 C         -75.766113     -202.048035      -70.156265
 C         -74.599335     -203.982742      -68.906998
 C         -74.463051     -201.509308      -70.610115
 C         -73.310135     -203.135025      -69.042114
 C         -73.222710     -202.422073      -70.320969
 H         -76.196632     -201.283997      -69.537926
 H         -76.462708     -202.033264      -71.022964
 H         -74.605255     -204.615829      -68.001221
 H         -74.496323     -204.694092      -69.702629
 H         -74.306549     -200.596786      -70.093018
 H         -74.500977     -201.147781      -71.630264
 H         -72.522865     -203.975250      -68.844193
 H         -73.217155     -202.439148      -68.234306
 H         -72.280327     -201.801239      -70.329765
 H         -73.208054     -203.213135      -71.152763
