20
 generated by VMD
 C         -12.656935      -27.393911       -4.704965
 N         -13.578837      -28.030615       -4.622796
 H         -10.526568      -30.008137       -2.650719
 H         -10.597246      -28.469919       -3.294398
 C          -9.931461      -29.288538       -3.151401
 C          -9.498109      -29.999119       -4.400684
 C          -8.791467      -28.691092       -2.341989
 C          -8.523205      -29.159355       -5.227874
 C          -7.999887      -27.758703       -3.213238
 C          -7.441013      -28.545744       -4.432027
 H         -10.399817      -30.321375       -4.928511
 H          -9.035941      -31.011375       -4.291282
 H          -9.249898      -28.220327       -1.467690
 H          -8.112647      -29.498758       -1.919757
 H          -9.108593      -28.459068       -5.801140
 H          -8.061869      -29.760323       -5.967547
 H          -7.186245      -27.280960       -2.604814
 H          -8.555634      -26.862089       -3.612371
 H          -6.893782      -27.802034       -4.991674
 H          -6.751329      -29.330416       -4.002848
