20
 generated by VMD
 C          -1.725357      -12.996828        0.583099
 N          -1.113386      -13.881845        0.896676
 H          -3.737414      -14.656960        1.811972
 H          -4.453770      -14.591340        0.246697
 C          -4.539886      -15.058409        1.220436
 C          -5.832376      -14.787987        1.929815
 C          -4.450838      -16.582403        0.960706
 C          -7.093087      -15.275739        1.264796
 C          -5.662731      -17.145353        0.226761
 C          -6.982036      -16.760103        0.959075
 H          -5.927957      -13.739737        2.166878
 H          -5.906115      -15.334695        2.851520
 H          -3.447433      -16.819784        0.381776
 H          -4.408462      -17.098066        2.022354
 H          -7.331084      -14.637568        0.394896
 H          -7.853686      -15.111165        2.049520
 H          -5.615083      -18.274374        0.188165
 H          -5.712697      -16.702232       -0.781823
 H          -7.795798      -16.932985        0.262182
 H          -7.139087      -17.419285        1.828165
