20
 generated by VMD
 C         -46.404728     -124.382645      -35.988918
 N         -46.941002     -125.312126      -35.562485
 H         -44.493309     -121.682060      -37.902542
 H         -46.008575     -123.418060      -36.429752
 C         -44.507137     -121.377266      -38.996483
 C         -43.175869     -121.583389      -39.829788
 C         -45.785877     -120.866119      -39.535244
 C         -43.520264     -121.792862      -41.363728
 C         -45.894798     -121.030067      -41.048729
 C         -44.622978     -120.928452      -41.869900
 H         -42.840904     -122.529694      -39.389324
 H         -42.509041     -120.749359      -39.784367
 H         -46.618835     -121.225220      -38.988895
 H         -45.830711     -119.729416      -39.418812
 H         -43.925747     -122.763329      -41.410793
 H         -42.631100     -121.505188      -41.984035
 H         -46.619026     -120.427917      -41.615601
 H         -46.261719     -122.018105      -41.219559
 H         -44.710850     -121.191978      -42.950703
 H         -44.259392     -119.950424      -41.937607
