20
 generated by VMD
 C         -70.537544     -181.261749      -63.993088
 N         -70.724701     -182.237320      -63.391155
 H         -68.124268     -181.507599      -61.109238
 H         -70.378433     -180.341797      -64.575104
 C         -67.324402     -180.816010      -60.850571
 C         -66.145584     -181.552902      -60.377880
 C         -67.333908     -179.390671      -60.525726
 C         -64.736923     -180.874847      -60.757244
 C         -66.007042     -178.683548      -60.780716
 C         -64.833900     -179.470459      -60.360081
 H         -66.129791     -182.518692      -60.862007
 H         -66.121140     -181.834244      -59.348667
 H         -68.148994     -178.992844      -61.163712
 H         -67.586014     -179.351791      -59.535545
 H         -64.571259     -180.836868      -61.794399
 H         -63.876133     -181.386169      -60.420334
 H         -66.045151     -177.736481      -60.217834
 H         -65.933563     -178.527924      -61.876358
 H         -63.958004     -178.816177      -60.815624
 H         -64.574051     -179.420593      -59.276897
