20
 generated by VMD
 C         -31.709200      -75.873291      -24.003260
 N         -31.149509      -76.309196      -24.934553
 H         -29.682747      -78.096901      -22.391302
 H         -32.655003      -75.558182      -23.349791
 C         -28.647169      -78.091515      -22.160257
 C         -27.619356      -78.257904      -23.197742
 C         -28.176968      -78.212906      -20.748245
 C         -26.263224      -77.626846      -22.876133
 C         -26.755499      -77.611809      -20.427320
 C         -25.767368      -78.106850      -21.528513
 H         -28.037472      -77.979309      -24.213886
 H         -27.424450      -79.395744      -23.342884
 H         -28.952057      -77.923820      -20.084728
 H         -28.076578      -79.286705      -20.429403
 H         -26.318628      -76.544914      -22.921795
 H         -25.542549      -77.957161      -23.613852
 H         -26.412012      -77.934273      -19.309135
 H         -26.790104      -76.453362      -20.397015
 H         -24.860855      -77.590988      -21.371408
 H         -25.642878      -79.236679      -21.423515
