20
 generated by VMD
 C          -1.462262      -10.808712        1.455081
 N          -0.966727      -11.758428        1.226817
 H          -3.818772      -13.158944        0.173786
 H          -5.393246      -12.789488        1.068249
 C          -4.627807      -13.571462        0.825979
 C          -3.893968      -13.895217        2.146624
 C          -5.258626      -14.783966        0.157220
 C          -4.920012      -14.469560        3.109025
 C          -6.203903      -15.508912        1.145033
 C          -5.612521      -15.701418        2.551847
 H          -3.311095      -13.015836        2.502609
 H          -3.075361      -14.539553        1.924265
 H          -5.936752      -14.509639       -0.715965
 H          -4.474097      -15.552338       -0.212698
 H          -5.646869      -13.718838        3.226684
 H          -4.451293      -14.597769        4.082265
 H          -6.610500      -16.411476        0.669390
 H          -7.080893      -14.875703        1.186222
 H          -6.467901      -15.946304        3.233945
 H          -4.926760      -16.611055        2.541507
