20
 generated by VMD
 C         -58.382633     -168.460175      -54.954632
 N         -57.197903     -168.610199      -54.935490
 H         -61.722031     -167.958679      -55.483448
 H         -59.460384     -168.303741      -55.048313
 C         -62.396732     -167.388870      -56.128269
 C         -62.655045     -167.699921      -57.638176
 C         -62.933723     -166.027344      -55.576962
 C         -64.170288     -167.570084      -57.930344
 C         -64.392891     -165.909378      -55.965034
 C         -64.666710     -166.210007      -57.476070
 H         -62.076004     -168.683472      -57.845222
 H         -62.106644     -166.996338      -58.127800
 H         -62.793137     -166.011887      -54.469227
 H         -62.230385     -165.290619      -56.093216
 H         -64.674538     -168.419144      -57.439053
 H         -64.285286     -167.747513      -59.022530
 H         -64.829025     -164.913406      -55.904636
 H         -65.081711     -166.346329      -55.335609
 H         -65.719109     -166.252670      -57.564983
 H         -64.355713     -165.357040      -58.038219
