20
 generated by VMD
 C         -18.238295      -48.666130       -7.228887
 N         -18.938406      -49.477978       -6.906824
 H         -16.199823      -47.747787      -10.075435
 H         -16.377008      -49.025021      -11.341316
 C         -16.370840      -47.934898      -11.155469
 C         -15.180210      -47.418316      -11.986854
 C         -17.625607      -47.323624      -11.659914
 C         -15.360003      -47.332199      -13.484225
 C         -17.789246      -47.707565      -13.103046
 C         -16.760944      -46.864460      -13.885942
 H         -14.351102      -48.132645      -11.704432
 H         -14.713424      -46.507095      -11.605831
 H         -18.476618      -47.702869      -11.106260
 H         -17.678919      -46.229031      -11.512534
 H         -15.278063      -48.356506      -13.875086
 H         -14.595525      -46.749546      -13.995883
 H         -18.859653      -47.510963      -13.462738
 H         -17.550343      -48.779327      -13.295961
 H         -16.920626      -46.978611      -14.965359
 H         -16.836248      -45.783531      -13.598981
