20
 generated by VMD
 C         -15.155874      -46.423153       -5.865886
 N         -14.904717      -47.413246       -5.398330
 H         -16.058649      -45.456799       -9.543435
 H         -14.722501      -45.427765      -10.841219
 C         -15.802728      -45.442127      -10.648416
 C         -16.440125      -44.068901      -11.132631
 C         -16.538174      -46.611477      -11.255157
 C         -16.511137      -43.992069      -12.636994
 C         -16.754841      -46.529320      -12.743386
 C         -17.327591      -45.205597      -13.217369
 H         -15.916122      -43.224861      -10.623993
 H         -17.439611      -44.064747      -10.707519
 H         -16.041962      -47.520538      -10.944607
 H         -17.563442      -46.658382      -10.891665
 H         -15.507929      -43.900024      -13.089871
 H         -17.074648      -43.112469      -12.938358
 H         -17.331594      -47.433414      -13.156662
 H         -15.726949      -46.607059      -13.217697
 H         -17.408352      -45.258209      -14.336874
 H         -18.333200      -45.005077      -12.856750
