20
 generated by VMD
 C         -35.336281      -97.255486      -26.124607
 N         -34.366566      -97.822578      -25.785217
 H         -35.816807      -94.066864      -27.760477
 H         -36.169159      -96.797333      -26.562979
 C         -35.276531      -94.186623      -28.694250
 C         -35.998867      -95.057632      -29.629465
 C         -33.940857      -93.651100      -28.993679
 C         -35.851265      -94.620850      -31.097408
 C         -33.627209      -93.288757      -30.475683
 C         -34.326622      -94.222755      -31.461725
 H         -37.048508      -95.113411      -29.250395
 H         -35.624321      -96.087074      -29.536901
 H         -33.529053      -92.858444      -28.340628
 H         -33.355244      -94.593246      -28.690578
 H         -36.514828      -93.780838      -31.310646
 H         -36.257641      -95.422775      -31.675035
 H         -32.574127      -93.210289      -30.674202
 H         -33.946285      -92.219658      -30.651178
 H         -34.407650      -93.867867      -32.494457
 H         -33.718758      -95.217613      -31.481810
