20
 generated by VMD
 C         -36.844761      -98.393974      -25.764399
 N         -36.988918      -98.388321      -26.912794
 H         -35.952808      -96.360435      -28.486622
 H         -36.781212      -98.361259      -24.653923
 C         -35.616394      -95.799614      -29.357038
 C         -35.710293      -96.551033      -30.664766
 C         -34.480286      -94.932014      -29.144110
 C         -35.101902      -95.812744      -31.896088
 C         -33.936382      -94.163071      -30.479090
 C         -33.683426      -95.193390      -31.570488
 H         -36.786125      -96.702187      -30.834349
 H         -35.245663      -97.560570      -30.613180
 H         -34.696739      -94.182259      -28.327547
 H         -33.567917      -95.474747      -28.832472
 H         -35.738495      -95.038223      -32.401833
 H         -34.876633      -96.565018      -32.683651
 H         -33.002522      -93.581619      -30.137785
 H         -34.670944      -93.469139      -30.783705
 H         -33.077106      -94.705330      -32.354740
 H         -33.086323      -95.841469      -31.084728
