20
 generated by VMD
 C         -20.720333      -64.185837      -16.544724
 N         -19.765118      -63.605606      -16.933136
 H         -23.247530      -63.556553      -17.725252
 H         -21.526228      -64.787651      -16.418909
 C         -23.879492      -64.444466      -17.793428
 C         -24.575373      -64.365349      -19.095592
 C         -24.377502      -65.261093      -16.655870
 C         -24.755938      -65.827690      -19.639854
 C         -24.635040      -66.705055      -17.130754
 C         -25.456558      -66.602898      -18.449854
 H         -23.933069      -63.817734      -19.736677
 H         -25.512810      -63.869629      -18.803568
 H         -23.642220      -65.294487      -15.962850
 H         -25.314034      -64.865318      -16.273970
 H         -23.762445      -66.249550      -19.845190
 H         -25.295038      -65.803513      -20.590326
 H         -25.183758      -67.205727      -16.336445
 H         -23.670074      -67.219727      -17.235327
 H         -25.668419      -67.592659      -18.824955
 H         -26.471577      -66.295250      -18.231779
