20
 generated by VMD
 C         -75.011566     -201.553925      -66.611984
 N         -75.144249     -201.754776      -65.498924
 H         -76.212997     -199.576675      -69.038963
 H         -74.668427     -201.304749      -67.633286
 C         -75.317993     -198.964523      -69.052376
 C         -74.998528     -197.772995      -68.215805
 C         -74.269310     -199.543945      -69.964142
 C         -73.442116     -197.720169      -68.002464
 C         -73.121521     -198.619385      -70.451660
 C         -72.656075     -197.636047      -69.336418
 H         -75.595993     -197.692383      -67.161758
 H         -75.297218     -196.892197      -68.803169
 H         -73.756905     -200.351089      -69.401665
 H         -74.762779     -199.976547      -70.780937
 H         -73.114670     -198.672394      -67.493233
 H         -73.151596     -196.876923      -67.325005
 H         -73.542236     -198.065186      -71.325562
 H         -72.219711     -199.298584      -70.731850
 H         -71.497177     -197.770721      -69.272820
 H         -72.687889     -196.587570      -69.594276
