20
 generated by VMD
 C          -1.534569      -10.668376        0.786109
 N          -0.810065      -10.695431        1.672132
 H          -3.833044      -12.985229        0.197462
 H          -4.978717      -12.481469        1.406074
 C          -4.465178      -13.351257        0.997754
 C          -3.585701      -13.947531        2.109243
 C          -5.486155      -14.316187        0.422420
 C          -4.451099      -14.534493        3.256114
 C          -6.246873      -14.997578        1.512445
 C          -5.452220      -15.538309        2.667760
 H          -3.077653      -13.117895        2.526895
 H          -2.867076      -14.642916        1.663782
 H          -6.245377      -13.791748       -0.241845
 H          -4.984230      -15.125088       -0.257337
 H          -5.083619      -13.703028        3.650839
 H          -3.908128      -15.040676        4.039259
 H          -6.783764      -15.841654        1.114045
 H          -6.931145      -14.263945        1.946981
 H          -6.144638      -15.883460        3.503082
 H          -4.806473      -16.401655        2.379998
