20
 generated by VMD
 C         -62.984039     -172.320221      -55.166321
 N         -62.513023     -173.356110      -55.147137
 H         -61.569855     -171.361160      -58.651783
 H         -63.338455     -171.328247      -55.163605
 C         -62.440289     -170.740784      -58.675163
 C         -62.355671     -169.434555      -58.099228
 C         -63.660923     -171.461044      -59.041313
 C         -63.646820     -168.633957      -57.966366
 C         -64.948799     -170.443420      -59.128464
 C         -64.975960     -169.394562      -57.936077
 H         -61.650051     -168.818756      -58.591068
 H         -61.912476     -169.598145      -57.045544
 H         -63.666149     -172.000229      -60.029980
 H         -63.837116     -172.231293      -58.330963
 H         -63.641441     -167.968872      -58.765488
 H         -63.519600     -168.071030      -57.019825
 H         -65.850792     -171.098770      -59.107407
 H         -64.896378     -169.923477      -60.125301
 H         -65.868362     -168.695038      -58.146278
 H         -65.098984     -169.871414      -56.965591
