20
 generated by VMD
 C         -30.465723      -75.538284      -22.666101
 N         -31.366541      -75.043938      -22.086954
 H         -28.549940      -78.155251      -21.053326
 H         -29.723593      -76.287529      -22.988297
 C         -27.829926      -77.452721      -21.507944
 C         -26.743610      -77.959572      -22.496916
 C         -27.706182      -76.152275      -20.725853
 C         -25.866896      -76.890358      -23.008163
 C         -26.827477      -75.120865      -21.471987
 C         -25.515690      -75.859451      -21.930838
 H         -27.268549      -78.594284      -23.240479
 H         -26.157532      -78.740578      -22.172186
 H         -28.690027      -75.766289      -20.509005
 H         -27.132080      -76.396187      -19.843472
 H         -26.396870      -76.347511      -23.834541
 H         -24.891537      -77.290833      -23.357624
 H         -26.650217      -74.203545      -20.965845
 H         -27.447220      -74.817207      -22.355837
 H         -24.751314      -75.161064      -22.238592
 H         -24.902283      -76.426254      -21.132591
