20
 generated by VMD
 C         -78.594711     -209.339203      -77.050880
 N         -77.794540     -209.827591      -77.750404
 H         -79.323830     -211.115341      -73.633041
 H         -79.333977     -208.797150      -76.375275
 C         -79.375999     -212.045547      -73.153900
 C         -78.102600     -212.454987      -72.468727
 C         -80.561394     -213.019791      -72.966980
 C         -78.316788     -212.543839      -70.962082
 C         -80.637039     -213.387421      -71.445564
 C         -79.281990     -213.749451      -70.756920
 H         -77.413368     -211.562256      -72.626106
 H         -77.642426     -213.418594      -72.816246
 H         -81.518227     -212.685394      -73.296455
 H         -80.462250     -213.964172      -73.617645
 H         -78.685921     -211.532211      -70.777855
 H         -77.437134     -212.700867      -70.406868
 H         -81.425430     -214.133270      -71.282173
 H         -80.975334     -212.531540      -71.021049
 H         -79.611610     -213.973633      -69.719124
 H         -78.864563     -214.639877      -71.131554
