20
 generated by VMD
 C         -11.976604      -27.742958       -1.516169
 N         -11.876040      -26.674866       -1.820746
 H         -10.409599      -25.828604       -4.496073
 H          -8.868196      -25.847082       -5.495800
 C          -9.314453      -26.077610       -4.495182
 C          -9.086871      -27.568499       -4.183360
 C          -8.654963      -25.243311       -3.390535
 C          -7.555470      -27.792704       -4.194450
 C          -7.182907      -25.548475       -3.262171
 C          -6.914769      -26.986296       -3.003469
 H          -9.534955      -28.160725       -4.944798
 H          -9.459039      -27.861473       -3.169711
 H          -8.738943      -24.198135       -3.682190
 H          -9.120366      -25.435568       -2.386663
 H          -7.016929      -27.501047       -5.109545
 H          -7.341930      -28.879681       -4.037639
 H          -6.835907      -24.872068       -2.441806
 H          -6.674803      -25.107401       -4.132079
 H          -5.847305      -27.154629       -2.919916
 H          -7.295869      -27.368187       -2.039548
