20
 generated by VMD
 C         -57.075443     -150.932739      -48.113716
 N         -58.185230     -150.959000      -48.559196
 H         -54.128010     -148.982132      -47.378494
 H         -56.057716     -150.883942      -47.776978
 C         -54.280102     -148.530075      -48.415077
 C         -53.533298     -149.330719      -49.396011
 C         -54.583214     -147.147949      -48.807175
 C         -54.360996     -149.277679      -50.647678
 C         -55.268681     -147.117599      -50.081211
 C         -54.527073     -147.853394      -51.132904
 H         -53.472492     -150.310211      -49.020172
 H         -52.558769     -149.027145      -49.730461
 H         -55.218258     -146.674240      -47.984932
 H         -53.636066     -146.617462      -48.803047
 H         -55.363369     -149.739792      -50.468357
 H         -53.873589     -149.877838      -51.421539
 H         -55.516823     -146.063156      -50.498936
 H         -56.231564     -147.531311      -50.003799
 H         -55.105534     -147.927536      -52.109581
 H         -53.602226     -147.435211      -51.470524
