20
 generated by VMD
 C         -11.980378      -41.720928       -7.323676
 N         -11.514908      -40.793957       -6.886259
 H         -14.239179      -40.826664       -8.215399
 H         -15.229842      -40.182865       -9.574327
 C         -14.901295      -41.090038       -8.980685
 C         -16.079275      -41.722275       -8.247966
 C         -14.310767      -42.029812      -10.021025
 C         -17.155653      -42.269047       -9.265235
 C         -15.371861      -42.639442      -11.013485
 C         -16.545607      -43.288506      -10.235432
 H         -16.577406      -41.043579       -7.530790
 H         -15.762524      -42.614502       -7.612083
 H         -13.554029      -41.407585      -10.528868
 H         -13.673644      -42.907810       -9.572428
 H         -17.561144      -41.390034       -9.826087
 H         -18.108435      -42.601509       -8.760997
 H         -14.830123      -43.410084      -11.670166
 H         -15.731017      -41.852833      -11.600587
 H         -17.294548      -43.463848      -10.988077
 H         -16.237638      -44.181599       -9.666832
