20
 generated by VMD
 C         -30.196638      -92.520798      -25.763849
 N         -29.485487      -92.379326      -24.856043
 H         -32.394733      -90.048866      -26.611214
 H         -31.007227      -92.753929      -26.519878
 C         -33.240913      -90.158699      -27.343594
 C         -34.064102      -91.386162      -27.054506
 C         -33.390766      -89.240524      -28.596849
 C         -35.431267      -91.253716      -27.755056
 C         -34.851166      -89.301224      -29.253054
 C         -35.251671      -90.734367      -29.206427
 H         -34.399078      -91.509605      -26.018187
 H         -33.594563      -92.280144      -27.492170
 H         -33.186760      -88.317688      -28.127312
 H         -32.609283      -89.409775      -29.280317
 H         -36.144562      -90.589050      -27.334616
 H         -35.939758      -92.247665      -27.772354
 H         -34.742104      -89.088280      -30.343048
 H         -35.511299      -88.591553      -28.746967
 H         -36.250999      -90.574463      -29.679287
 H         -34.686535      -91.492218      -29.814720
