20
 generated by VMD
 C         -68.313934     -179.758347      -58.981464
 N         -68.186501     -180.011337      -60.108833
 H         -67.395981     -176.583206      -59.682693
 H         -68.532463     -179.576569      -57.964676
 C         -66.389664     -176.853180      -60.062813
 C         -66.098259     -176.419968      -61.448292
 C         -65.278740     -177.193466      -59.154724
 C         -65.104324     -175.276901      -61.325306
 C         -64.152466     -176.082352      -59.101616
 C         -63.782223     -175.685242      -60.478420
 H         -66.915298     -176.010315      -61.988186
 H         -65.743988     -177.195892      -62.120930
 H         -65.856384     -177.225571      -58.209999
 H         -64.946434     -178.229034      -59.362930
 H         -65.336517     -174.169281      -60.955219
 H         -64.697777     -175.159775      -62.341473
 H         -63.363892     -176.531693      -58.566021
 H         -64.548630     -175.267242      -58.525776
 H         -63.008400     -174.959717      -60.485168
 H         -63.386524     -176.433441      -61.119537
