20
 generated by VMD
 C         -79.805603     -205.387405      -71.203674
 N         -80.201698     -206.451370      -71.488838
 H         -77.330193     -203.061478      -70.552567
 H         -79.452209     -204.402405      -71.153244
 C         -76.260262     -203.291656      -70.337685
 C         -75.142578     -202.327225      -70.305405
 C         -75.923607     -204.767960      -70.127014
 C         -73.872169     -203.003860      -70.646317
 C         -74.677170     -204.982437      -69.143318
 C         -73.591927     -203.967972      -69.510292
 H         -75.149818     -201.958405      -69.260605
 H         -75.422646     -201.567520      -71.017723
 H         -76.786430     -205.089859      -69.651062
 H         -75.705566     -205.286469      -70.998581
 H         -72.965973     -202.406418      -70.933708
 H         -73.940140     -203.714798      -71.531265
 H         -74.329758     -206.097168      -69.299179
 H         -74.945648     -204.837097      -68.118263
 H         -73.404633     -203.504135      -68.459999
 H         -72.616974     -204.499939      -69.721207
