20
 generated by VMD
 C         -10.179750      -24.660412       -0.515778
 N         -11.262356      -24.910061       -0.603603
 H          -6.260283      -25.242523       -0.969109
 H          -7.985604      -25.270990       -1.362282
 C          -6.959055      -24.982805       -1.778245
 C          -6.839568      -25.834076       -3.000412
 C          -6.917111      -23.520864       -2.073907
 C          -7.929067      -25.378601       -3.960521
 C          -7.917428      -23.074488       -3.051395
 C          -7.887050      -23.874718       -4.316573
 H          -6.878018      -26.981077       -2.847246
 H          -5.843073      -25.677050       -3.429022
 H          -6.931462      -22.940933       -1.187800
 H          -5.907386      -23.279692       -2.496320
 H          -8.879387      -25.579268       -3.537343
 H          -7.902304      -26.032221       -4.829659
 H          -7.792139      -22.012650       -3.325395
 H          -8.925378      -23.125355       -2.597639
 H          -8.555591      -23.610331       -5.098588
 H          -6.899202      -23.616869       -4.814593
