20
 generated by VMD
 C         -27.542667      -86.499245      -26.253614
 N         -28.481606      -86.525101      -26.989901
 H         -30.970455      -86.355385      -25.337912
 H         -26.666271      -86.378029      -25.691259
 C         -31.834469      -86.968307      -25.597658
 C         -32.833298      -87.402481      -24.456430
 C         -32.102940      -87.318398      -27.001713
 C         -34.319881      -87.481583      -24.992357
 C         -33.529125      -87.573196      -27.408094
 C         -34.379566      -88.128647      -26.370970
 H         -32.661995      -86.665230      -23.657301
 H         -32.549564      -88.454315      -24.099949
 H         -31.622715      -86.578377      -27.690231
 H         -31.539864      -88.227646      -27.165670
 H         -34.667404      -86.449463      -25.177296
 H         -34.994625      -88.038445      -24.403502
 H         -33.481068      -88.275482      -28.281078
 H         -33.939693      -86.613792      -27.772953
 H         -35.430828      -88.122940      -26.721817
 H         -34.146610      -89.273560      -26.320103
