20
 generated by VMD
 C         -30.065180      -92.213577      -25.646639
 N         -29.287466      -92.323303      -24.821932
 H         -32.333477      -89.984734      -26.668898
 H         -30.870333      -92.252716      -26.346825
 C         -33.144646      -90.187210      -27.299948
 C         -34.120831      -91.360550      -27.239059
 C         -33.272446      -89.302620      -28.515638
 C         -35.528118      -91.137360      -27.774426
 C         -34.737133      -89.303337      -29.147984
 C         -35.528614      -90.566162      -29.131937
 H         -33.952492      -91.745605      -26.233856
 H         -33.593098      -92.189873      -27.804880
 H         -33.167191      -88.275276      -28.306852
 H         -32.555202      -89.481178      -29.299511
 H         -35.935738      -90.477432      -26.947891
 H         -36.106819      -92.037918      -27.734161
 H         -34.683487      -89.070755      -30.211283
 H         -35.408417      -88.495438      -28.797457
 H         -36.648602      -90.375130      -29.342649
 H         -35.177456      -91.245255      -29.978327
