20
 generated by VMD
 C         -61.153080     -156.080063      -54.582996
 N         -60.593136     -156.060364      -55.658436
 H         -59.453674     -155.721451      -51.560989
 H         -61.509838     -155.995834      -53.559185
 C         -58.426502     -155.894318      -51.283367
 C         -57.601456     -154.802994      -50.747620
 C         -57.747635     -156.922791      -52.156570
 C         -56.347752     -155.415421      -50.154701
 C         -56.364029     -157.444305      -51.655945
 C         -55.524326     -156.212357      -51.071198
 H         -58.162663     -154.336899      -49.965008
 H         -57.340466     -153.995438      -51.478275
 H         -58.505875     -157.668167      -52.252338
 H         -57.639904     -156.535660      -53.129795
 H         -56.657070     -155.915115      -49.294369
 H         -55.596283     -154.774933      -49.834389
 H         -55.673981     -157.899323      -52.339481
 H         -56.584045     -158.116638      -50.834858
 H         -54.725746     -156.651215      -50.602291
 H         -55.138775     -155.559952      -51.932262
