20
 generated by VMD
 C         -61.874550     -172.373978      -54.943722
 N         -60.936596     -172.946716      -55.237019
 H         -61.929348     -170.821259      -57.302341
 H         -62.694729     -171.753098      -54.668606
 C         -62.675678     -170.197632      -57.838776
 C         -62.438782     -168.706955      -57.874172
 C         -64.120377     -170.706146      -57.921139
 C         -63.583256     -167.908264      -58.611778
 C         -65.072449     -169.805161      -58.629642
 C         -64.915787     -168.351669      -58.268604
 H         -61.506588     -168.375748      -58.425388
 H         -62.305359     -168.361969      -56.852142
 H         -64.259293     -171.684036      -58.479118
 H         -64.500351     -170.906830      -56.920170
 H         -63.425980     -168.141373      -59.689526
 H         -63.303802     -166.805084      -58.409595
 H         -66.078735     -170.095673      -58.399685
 H         -64.875076     -169.924530      -59.639656
 H         -65.835228     -167.951950      -58.780399
 H         -65.119179     -168.212799      -57.215485
