20
 generated by VMD
 C         -49.561203     -141.646118      -45.790909
 N         -49.532204     -142.215164      -44.776497
 H         -51.722103     -138.417191      -46.344765
 H         -49.577305     -141.005386      -46.640507
 C         -52.277813     -139.332123      -46.437477
 C         -52.855640     -139.495529      -47.806416
 C         -52.965313     -140.153488      -45.327526
 C         -53.117249     -141.015457      -48.237236
 C         -53.141018     -141.607864      -45.663624
 C         -53.842869     -141.777954      -47.078465
 H         -52.154144     -139.112427      -48.579105
 H         -53.792908     -138.947510      -47.991188
 H         -52.480652     -139.930664      -44.361786
 H         -53.994297     -139.666656      -45.123936
 H         -52.310539     -141.602722      -48.378479
 H         -53.732666     -140.865952      -49.078217
 H         -53.675102     -142.106720      -44.862293
 H         -52.060226     -141.962921      -45.596493
 H         -54.081455     -142.846115      -47.342209
 H         -54.825550     -141.311829      -46.873333
