20
 generated by VMD
 C         -77.376793     -203.441986      -67.432320
 N         -77.982773     -204.374802      -67.147774
 H         -74.412727     -201.023514      -67.439758
 H         -76.831017     -202.606476      -67.737999
 C         -74.284424     -200.458252      -68.320847
 C         -74.990654     -199.153763      -68.785820
 C         -74.033646     -201.187607      -69.629120
 C         -73.938606     -198.289413      -69.559265
 C         -72.918526     -200.502594      -70.352486
 C         -73.262054     -199.015503      -70.705170
 H         -75.321060     -198.688828      -67.850098
 H         -75.783264     -199.372269      -69.385864
 H         -73.747566     -202.242661      -69.420433
 H         -75.021049     -201.272263      -70.156548
 H         -73.074890     -198.044266      -68.878723
 H         -74.338188     -197.334824      -70.035194
 H         -72.596107     -201.193787      -71.093353
 H         -72.091743     -200.405930      -69.684990
 H         -72.328468     -198.431412      -71.018036
 H         -73.942375     -198.922623      -71.461266
