20
 generated by VMD
 C         -48.384415     -140.639206      -45.476807
 N         -47.268875     -140.437302      -45.487350
 H         -51.107464     -138.822693      -45.855839
 H         -49.391243     -140.937500      -45.519329
 C         -52.104721     -139.200821      -46.013092
 C         -52.452591     -139.354477      -47.380188
 C         -53.063660     -139.552917      -44.905132
 C         -53.326920     -140.606964      -47.756054
 C         -53.952503     -140.765686      -45.252396
 C         -54.478645     -140.721649      -46.665901
 H         -51.519402     -139.517242      -48.013206
 H         -52.756866     -138.351471      -47.724842
 H         -52.530598     -139.832718      -43.952034
 H         -53.602024     -138.616592      -44.723549
 H         -52.644428     -141.410477      -47.748589
 H         -53.813107     -140.588165      -48.674187
 H         -54.672901     -140.753326      -44.500641
 H         -53.301533     -141.672241      -45.114693
 H         -54.913811     -141.687805      -46.717052
 H         -55.242260     -139.936829      -46.905132
