20
 generated by VMD
 C         -60.461628     -155.910400      -54.262409
 N         -61.024559     -156.358337      -55.122555
 H         -59.345036     -155.665909      -51.190079
 H         -60.015450     -155.549225      -53.379654
 C         -58.305687     -155.481461      -51.448292
 C         -57.491665     -154.628067      -50.532833
 C         -57.585995     -156.303589      -52.558205
 C         -56.374474     -155.342621      -49.946590
 C         -56.367554     -156.987518      -51.832169
 C         -55.499928     -156.060638      -51.011223
 H         -58.187939     -154.323105      -49.697559
 H         -57.069599     -153.842682      -51.094589
 H         -58.394405     -157.049545      -52.863815
 H         -57.227299     -155.649307      -53.416306
 H         -56.756058     -155.807648      -49.036621
 H         -55.671387     -154.640945      -49.386513
 H         -55.674870     -157.561951      -52.480801
 H         -56.808701     -157.778854      -51.318153
 H         -54.608547     -156.615555      -50.522049
 H         -55.084793     -155.279388      -51.581963
