20
 generated by VMD
 C         -70.317581     -183.389526      -66.057587
 N         -69.248199     -182.906982      -65.938446
 H         -68.872131     -184.863083      -63.100250
 H         -71.242210     -183.860001      -66.185738
 C         -68.334961     -184.320923      -62.324799
 C         -68.282326     -184.772049      -60.807304
 C         -67.788727     -182.964203      -62.676350
 C         -67.358772     -183.891617      -59.880840
 C         -67.115265     -182.025299      -61.677208
 C         -67.476265     -182.409317      -60.269367
 H         -67.873703     -185.780167      -60.854351
 H         -69.270599     -184.734604      -60.422421
 H         -67.110077     -183.067825      -63.515724
 H         -68.653221     -182.364166      -63.158089
 H         -66.360275     -184.381500      -59.979374
 H         -67.652107     -184.076111      -58.852604
 H         -67.403641     -180.951660      -61.889771
 H         -65.998131     -182.001419      -61.830856
 H         -66.810417     -181.912811      -59.645702
 H         -68.556183     -182.175095      -60.063496
