20
 generated by VMD
 C         -66.832207     -191.101410      -66.296371
 N         -67.727676     -190.602036      -66.794434
 H         -70.563805     -190.055420      -66.640205
 H         -66.009979     -191.760086      -65.997368
 C         -71.142281     -190.066055      -65.726196
 C         -72.185760     -191.157974      -65.508713
 C         -70.648323     -189.474579      -64.485474
 C         -73.349396     -190.787628      -64.550270
 C         -71.911842     -188.810593      -63.828407
 C         -72.788994     -189.940628      -63.285145
 H         -71.747765     -192.123978      -65.174286
 H         -72.544655     -191.419296      -66.494896
 H         -70.160255     -190.298691      -63.921501
 H         -69.934258     -188.763992      -64.821838
 H         -73.805534     -191.748749      -64.205879
 H         -73.997284     -190.125534      -65.117363
 H         -72.583542     -188.329361      -64.520782
 H         -71.619957     -188.129425      -62.976250
 H         -72.191673     -190.787521      -62.774242
 H         -73.430817     -189.492462      -62.548080
