20
 generated by VMD
 C         -40.344513     -105.949471      -37.015633
 N         -39.936462     -106.789116      -37.687572
 H         -38.524681     -108.308647      -34.981133
 H         -40.714195     -105.038452      -36.499054
 C         -39.136417     -108.640144      -34.111095
 C         -38.522495     -109.522675      -33.128407
 C         -40.511753     -108.900856      -34.489754
 C         -39.390644     -109.834129      -31.970041
 C         -41.361229     -109.175758      -33.238613
 C         -40.798340     -110.367531      -32.402069
 H         -37.559811     -109.191742      -32.762650
 H         -38.165737     -110.499176      -33.490135
 H         -41.043869     -108.122185      -35.000805
 H         -40.617954     -109.785690      -35.208176
 H         -39.439632     -108.952538      -31.245567
 H         -38.923733     -110.648079      -31.383398
 H         -42.340019     -109.436852      -33.643566
 H         -41.700466     -108.310471      -32.686432
 H         -41.332413     -110.630089      -31.511356
 H         -40.660645     -111.309387      -33.031219
