20
 generated by VMD
 C         -69.313507     -180.312271      -60.301998
 N         -69.194191     -181.468460      -60.419567
 H         -67.348785     -177.369080      -59.609978
 H         -69.526596     -179.248032      -60.141315
 C         -66.337990     -177.234222      -59.850746
 C         -66.006897     -177.151764      -61.317890
 C         -65.281311     -177.129135      -58.837288
 C         -64.833778     -176.141800      -61.625069
 C         -64.271378     -176.040863      -59.306381
 C         -63.752140     -176.111694      -60.647034
 H         -66.875191     -176.832977      -61.921574
 H         -65.674202     -178.143936      -61.567841
 H         -65.699776     -176.724335      -57.853203
 H         -64.776131     -178.070465      -58.587872
 H         -65.191444     -175.096710      -61.726734
 H         -64.295898     -176.533752      -62.530201
 H         -63.421436     -176.071228      -58.576664
 H         -64.634811     -174.984650      -59.185394
 H         -63.118980     -175.172028      -60.778118
 H         -63.051224     -176.941223      -60.569721
