20
 generated by VMD
 C         -22.403782      -68.049347      -16.442808
 N         -21.566534      -68.045029      -15.642220
 H         -24.233994      -66.024246      -17.989290
 H         -22.983938      -67.973892      -17.399193
 C         -24.642115      -66.424133      -18.898455
 C         -23.932871      -67.035339      -20.016973
 C         -26.167889      -66.451759      -18.765203
 C         -24.441694      -68.482262      -20.344469
 C         -26.534660      -67.944016      -19.055899
 C         -26.032864      -68.498840      -20.412830
 H         -22.936195      -66.975998      -19.777109
 H         -24.050064      -66.430405      -20.872965
 H         -26.439833      -66.219696      -17.709723
 H         -26.711380      -65.662476      -19.505095
 H         -24.005562      -69.169846      -19.588037
 H         -24.048471      -68.740044      -21.403233
 H         -27.592123      -68.071625      -19.202677
 H         -26.166739      -68.609901      -18.241810
 H         -26.506992      -69.481094      -20.496258
 H         -26.409063      -67.964836      -21.326126
