20
 generated by VMD
 C         -60.472267     -169.713104      -55.217323
 N         -59.400795     -169.432907      -55.351597
 H         -63.066826     -170.496155      -56.568546
 H         -61.491566     -169.926331      -54.947948
 C         -63.399330     -169.584167      -57.009605
 C         -62.530815     -169.027435      -58.183907
 C         -63.916088     -168.703247      -55.961147
 C         -63.231621     -167.829636      -58.737938
 C         -64.526772     -167.419144      -56.638611
 C         -63.514675     -166.827377      -57.613651
 H         -62.454201     -169.928711      -58.876530
 H         -61.504162     -168.755707      -57.778351
 H         -64.764046     -169.141968      -55.317802
 H         -63.207287     -168.266052      -55.269943
 H         -64.174675     -167.969269      -59.221046
 H         -62.588699     -167.544174      -59.583466
 H         -64.913216     -166.801910      -55.825550
 H         -65.460411     -167.898071      -57.161495
 H         -63.777809     -165.845932      -58.007336
 H         -62.575981     -166.562897      -56.991810
