20
 generated by VMD
 C         -80.320831     -206.815186      -74.026932
 N         -80.571533     -206.830719      -75.140945
 H         -76.525894     -207.634048      -73.201088
 H         -80.002899     -206.938568      -73.034988
 C         -76.502541     -207.687149      -72.030319
 C         -75.357971     -206.907654      -71.375633
 C         -77.236122     -208.745056      -71.356361
 C         -75.477394     -206.799850      -69.838905
 C         -77.464722     -208.199371      -69.835579
 C         -76.180092     -207.954071      -69.091545
 H         -75.321114     -205.850204      -71.734894
 H         -74.516426     -207.399918      -71.879166
 H         -78.217140     -208.814514      -71.795280
 H         -76.846848     -209.802689      -71.466423
 H         -75.979973     -205.882462      -69.607475
 H         -74.450806     -206.605591      -69.572342
 H         -78.105049     -208.889465      -69.279846
 H         -78.001152     -207.214996      -69.762123
 H         -76.275909     -207.689224      -67.975746
 H         -75.652412     -208.897583      -69.069862
