20
 generated by VMD
 C         -40.055351      -99.521027      -28.819035
 N         -39.290840     -100.079170      -28.134806
 H         -37.487206      -98.292091      -30.685186
 H         -40.906704      -99.155685      -29.296360
 C         -36.358635      -98.383537      -30.780666
 C         -35.703007      -98.862564      -32.014256
 C         -35.455784      -98.279182      -29.538881
 C         -34.643642      -97.848412      -32.407597
 C         -34.384941      -97.412567      -30.067459
 C         -33.693653      -97.834251      -31.254118
 H         -36.473587      -98.783508      -32.722233
 H         -35.458134      -99.925201      -31.779737
 H         -36.053043      -97.920097      -28.731766
 H         -34.962181      -99.237747      -29.286320
 H         -35.068443      -96.811882      -32.534550
 H         -34.192837      -98.200600      -33.330830
 H         -33.629974      -97.207153      -29.341803
 H         -34.657585      -96.376083      -30.247936
 H         -32.850662      -97.101944      -31.498735
 H         -33.218365      -98.767776      -31.211060
