20
 generated by VMD
 C         -22.807140      -55.273132      -15.153499
 N         -22.902023      -55.114273      -16.272966
 H         -19.538111      -54.390289      -15.401335
 H         -22.626406      -55.187210      -14.135264
 C         -19.280890      -55.265926      -14.894709
 C         -18.948046      -55.152119      -13.358964
 C         -19.595142      -56.616264      -15.473825
 C         -19.480438      -56.308102      -12.453034
 C         -19.335926      -57.793354      -14.580551
 C         -19.057436      -57.657013      -13.149163
 H         -19.232292      -54.188404      -12.952551
 H         -17.845825      -55.033619      -13.320309
 H         -20.578197      -56.735989      -15.856547
 H         -19.065840      -56.660114      -16.443729
 H         -20.563587      -56.257252      -12.494472
 H         -19.057491      -56.251324      -11.398324
 H         -18.531086      -58.396904      -15.014776
 H         -20.225815      -58.489975      -14.709396
 H         -19.640717      -58.397137      -12.622679
 H         -17.967682      -57.768158      -12.899695
