20
 generated by VMD
 C         -37.017864      -98.361252      -27.361689
 N         -37.799492      -98.293022      -26.509815
 H         -36.618706      -95.929771      -29.402946
 H         -36.292210      -98.270126      -28.261604
 C         -35.667606      -96.414825      -29.575552
 C         -35.366825      -97.268295      -30.796139
 C         -34.480225      -95.603188      -29.070335
 C         -35.039528      -96.270714      -31.882910
 C         -34.147243      -94.569923      -30.060659
 C         -33.918552      -95.355431      -31.483107
 H         -36.229549      -97.900375      -30.960999
 H         -34.497971      -97.901451      -30.592907
 H         -34.467209      -94.980812      -28.176836
 H         -33.682327      -96.388481      -28.988529
 H         -35.976658      -95.777245      -32.178715
 H         -34.627666      -96.784416      -32.821449
 H         -33.316578      -93.910637      -29.802546
 H         -35.123150      -94.055206      -30.287792
 H         -33.908627      -94.441460      -32.334194
 H         -32.973816      -95.848793      -31.479778
