20
 generated by VMD
 C         -23.505070      -55.060799      -15.053473
 N         -22.714083      -54.799450      -15.834879
 H         -20.043722      -54.597900      -15.468288
 H         -24.027117      -55.334293      -13.989974
 C         -19.456802      -55.258358      -14.865914
 C         -19.006281      -54.848297      -13.518622
 C         -18.988638      -56.515347      -15.367862
 C         -19.072359      -56.025856      -12.596940
 C         -19.470304      -57.646954      -14.397918
 C         -18.612173      -57.375076      -13.115631
 H         -19.683414      -54.085289      -13.102580
 H         -17.949228      -54.495415      -13.712626
 H         -19.393621      -56.668785      -16.336693
 H         -17.849558      -56.493423      -15.328486
 H         -20.052114      -56.182354      -12.155049
 H         -18.498974      -55.738899      -11.664183
 H         -19.362642      -58.637810      -14.781778
 H         -20.566605      -57.542065      -14.224317
 H         -18.681335      -58.216106      -12.409748
 H         -17.489571      -57.367432      -13.352598
