20
 generated by VMD
 C         -31.890896      -76.036179      -24.199924
 N         -31.246563      -76.423340      -25.115772
 H         -29.669708      -77.661026      -22.359631
 H         -32.022312      -75.623856      -23.226286
 C         -28.664110      -77.911674      -22.147978
 C         -27.631691      -78.184380      -23.244316
 C         -28.274792      -78.400795      -20.799688
 C         -26.144653      -77.940483      -22.862370
 C         -26.860598      -77.979065      -20.418955
 C         -25.826189      -78.255585      -21.455666
 H         -27.876442      -77.638290      -24.155535
 H         -27.781145      -79.137878      -23.670319
 H         -29.029459      -77.839653      -20.126675
 H         -28.463797      -79.464867      -20.701096
 H         -25.876556      -76.867310      -23.017334
 H         -25.462425      -78.438843      -23.612886
 H         -26.611317      -78.575706      -19.564259
 H         -26.700144      -76.870018      -20.147076
 H         -24.828329      -77.738899      -21.254656
 H         -25.735844      -79.305923      -21.487484
