20
 generated by VMD
 C         -44.215282     -121.803711      -35.896496
 N         -43.798855     -120.687592      -35.802006
 H         -44.870991     -122.521408      -39.461868
 H         -44.465298     -122.835960      -36.078529
 C         -44.829910     -121.495247      -39.620655
 C         -43.351303     -120.943024      -39.657452
 C         -45.894951     -120.643829      -39.045479
 C         -43.290337     -119.634705      -40.175041
 C         -45.750622     -119.237038      -39.488491
 C         -44.311962     -118.692802      -39.390415
 H         -42.729252     -121.676514      -40.208328
 H         -42.958477     -121.021065      -38.679386
 H         -46.870899     -120.985161      -39.396030
 H         -45.974964     -120.638992      -37.927711
 H         -43.554653     -119.698044      -41.226994
 H         -42.343971     -119.068275      -40.273441
 H         -46.300781     -118.483246      -38.989040
 H         -46.082542     -119.000175      -40.538406
 H         -44.377701     -117.592918      -39.763138
 H         -44.067989     -118.700546      -38.288998
