20
 generated by VMD
 C         -28.547617      -88.190620      -25.986917
 N         -28.520462      -87.064308      -26.154751
 H         -31.193678      -89.540672      -26.342215
 H         -28.470606      -89.219360      -25.917965
 C         -32.117104      -88.997459      -26.523823
 C         -33.107185      -88.969330      -25.337366
 C         -32.756927      -88.830704      -27.878241
 C         -34.076740      -87.779907      -25.446222
 C         -33.940208      -87.865532      -27.908173
 C         -34.826466      -87.932411      -26.757809
 H         -32.538921      -88.862839      -24.287945
 H         -33.558422      -90.029633      -25.232893
 H         -31.951963      -88.502335      -28.596397
 H         -32.877110      -89.866539      -28.103325
 H         -33.480106      -86.835518      -25.510210
 H         -34.922504      -87.685425      -24.597050
 H         -34.592861      -87.923653      -28.710398
 H         -33.558311      -86.843307      -27.876444
 H         -35.552032      -87.163277      -26.829027
 H         -35.437927      -88.838120      -26.836933
