20
 generated by VMD
 C         -20.335863      -57.280720      -16.802902
 N         -19.285906      -56.868523      -16.998817
 H         -22.538542      -59.493961      -17.335344
 H         -21.397972      -57.817394      -16.675350
 C         -22.388973      -60.292843      -16.733376
 C         -23.614908      -61.002377      -16.148684
 C         -21.134729      -61.014526      -16.498106
 C         -23.451471      -61.368240      -14.640425
 C         -21.312346      -62.278458      -15.634523
 C         -22.130384      -62.054470      -14.357804
 H         -23.795166      -61.888683      -16.738411
 H         -24.481369      -60.267719      -16.184141
 H         -20.622534      -61.175152      -17.427198
 H         -20.560389      -60.289917      -15.909678
 H         -24.274681      -62.012775      -14.367339
 H         -23.598310      -60.514267      -13.942389
 H         -20.283878      -62.494595      -15.405278
 H         -21.727795      -63.092068      -16.195929
 H         -22.164387      -62.932323      -13.751382
 H         -21.497536      -61.268600      -13.889904
