20
 generated by VMD
 C         -62.690029     -171.989578      -55.427166
 N         -62.375053     -173.112411      -55.220036
 H         -61.478630     -171.083252      -58.996944
 H         -63.169353     -171.006668      -55.593639
 C         -62.446434     -170.697632      -58.653854
 C         -62.370228     -169.395691      -57.774345
 C         -63.797806     -171.361191      -58.844112
 C         -63.587620     -168.455017      -57.966133
 C         -64.951775     -170.448074      -58.937439
 C         -64.890656     -169.322189      -57.937485
 H         -61.412525     -168.840485      -58.095486
 H         -62.173317     -169.689331      -56.722134
 H         -63.837780     -171.990387      -59.789722
 H         -63.808128     -172.161575      -57.996944
 H         -63.640774     -167.910461      -58.930126
 H         -63.669403     -167.654968      -57.308842
 H         -65.892357     -170.932541      -58.953457
 H         -64.972771     -170.048798      -59.901096
 H         -65.610931     -168.566711      -58.203407
 H         -65.194687     -169.710327      -56.853565
