20
 generated by VMD
 C         -61.550148     -154.825119      -53.668266
 N         -62.221127     -155.575806      -54.223049
 H         -58.192116     -155.464874      -52.088924
 H         -61.028751     -154.007095      -53.259514
 C         -57.329319     -154.994507      -51.642601
 C         -57.375378     -154.266006      -50.241589
 C         -56.058079     -154.837631      -52.448139
 C         -56.016529     -154.791565      -49.469479
 C         -54.862766     -155.248535      -51.671059
 C         -54.737167     -154.575882      -50.274658
 H         -58.249832     -154.531219      -49.733536
 H         -57.432549     -153.167969      -50.294327
 H         -56.326466     -155.433609      -53.295753
 H         -55.872303     -153.792633      -52.843468
 H         -56.080971     -155.860123      -49.161957
 H         -55.788429     -154.485336      -48.472198
 H         -53.999622     -155.095169      -52.233223
 H         -54.784206     -156.359940      -51.511875
 H         -53.915943     -154.942444      -49.650173
 H         -54.662697     -153.416489      -50.464485
