20
 generated by VMD
 C         -38.010555     -107.978119      -37.037937
 N         -38.537949     -108.189293      -38.020432
 H         -41.339378     -108.623390      -35.415707
 H         -37.741695     -107.687729      -36.011173
 C         -41.160393     -109.542320      -34.789780
 C         -40.226284     -110.694420      -34.985531
 C         -42.419338     -109.740906      -33.935696
 C         -40.034275     -111.448120      -33.681465
 C         -42.228966     -110.641670      -32.664791
 C         -41.418186     -111.945724      -33.090210
 H         -39.369160     -110.324028      -35.464935
 H         -40.818287     -111.218063      -35.693375
 H         -42.856335     -108.756226      -33.690891
 H         -43.199928     -110.132889      -34.659191
 H         -39.477985     -111.007309      -32.794201
 H         -39.521965     -112.362923      -33.859573
 H         -43.111774     -110.962082      -32.261948
 H         -41.695549     -110.101105      -31.864918
 H         -41.227673     -112.565643      -32.165253
 H         -42.026833     -112.527611      -33.914501
