20
 generated by VMD
 C         -62.651840     -172.087738      -55.289318
 N         -61.900108     -173.000076      -55.343452
 H         -61.544727     -171.242859      -57.903370
 H         -63.445606     -171.328674      -55.153042
 C         -62.433014     -170.657806      -58.194256
 C         -62.340828     -169.074738      -58.024719
 C         -63.803162     -171.167831      -58.611519
 C         -63.677002     -168.252258      -58.266483
 C         -64.947540     -170.207840      -58.756218
 C         -64.858444     -169.070648      -57.792145
 H         -61.650856     -168.667099      -58.639954
 H         -61.985741     -168.850464      -56.900486
 H         -63.756634     -171.735870      -59.531410
 H         -63.984261     -171.886093      -57.859108
 H         -63.853165     -168.227722      -59.366184
 H         -63.704674     -167.236816      -57.837513
 H         -65.896294     -170.784058      -58.694580
 H         -64.819565     -169.815063      -59.856804
 H         -65.752701     -168.502365      -57.909904
 H         -64.850723     -169.430817      -56.717255
