20
 generated by VMD
 C         -58.545422     -152.125961      -49.161583
 N         -59.595253     -152.160828      -49.727898
 H         -55.859982     -150.257614      -48.030071
 H         -57.648491     -151.935898      -48.574486
 C         -55.286819     -149.836456      -48.881203
 C         -54.518429     -150.879242      -49.581905
 C         -55.053650     -148.369492      -49.061714
 C         -54.204876     -150.522507      -50.956696
 C         -54.737186     -148.165985      -50.522373
 C         -53.732479     -149.092178      -51.103317
 H         -55.001057     -151.844711      -49.697128
 H         -53.488689     -150.881180      -48.962257
 H         -55.965332     -147.817551      -48.721149
 H         -54.361813     -148.050827      -48.329922
 H         -55.139019     -150.720367      -51.505539
 H         -53.422054     -151.109360      -51.422077
 H         -54.509941     -147.156723      -50.674995
 H         -55.712673     -148.032913      -51.208969
 H         -53.511223     -148.824066      -52.178272
 H         -52.810253     -148.970901      -50.654404
