20
 generated by VMD
 C         -56.289272     -150.007095      -46.713856
 N         -56.961773     -150.511963      -45.869324
 H         -53.303684     -147.723572      -47.705856
 H         -55.573650     -149.556686      -47.398876
 C         -53.722210     -147.493088      -48.640614
 C         -52.970753     -147.855072      -49.859303
 C         -54.581669     -146.140839      -48.605873
 C         -53.916435     -147.651047      -50.975849
 C         -55.347321     -146.068542      -49.869053
 C         -54.521435     -146.336319      -51.065041
 H         -52.539467     -148.906860      -49.975052
 H         -52.075562     -147.325104      -49.907192
 H         -55.159363     -146.094467      -47.654560
 H         -53.914307     -145.307938      -48.406067
 H         -54.723778     -148.419571      -51.043339
 H         -53.329407     -147.791550      -51.892220
 H         -55.671249     -145.082260      -49.881454
 H         -56.298210     -146.722382      -49.950066
 H         -55.133205     -146.060394      -51.930946
 H         -53.729687     -145.626450      -51.160954
