20
 generated by VMD
 C         -30.204372      -79.416016      -25.886469
 N         -30.960260      -78.603973      -26.136095
 H         -28.557726      -82.809418      -25.596418
 H         -29.437943      -80.276138      -25.880423
 C         -28.942654      -82.538551      -24.679663
 C         -28.162973      -81.833961      -23.585995
 C         -30.008268      -83.535301      -24.207846
 C         -29.078230      -81.200386      -22.563869
 C         -30.805960      -83.052414      -23.079197
 C         -30.002642      -82.294235      -22.041000
 H         -27.582285      -81.023720      -24.077553
 H         -27.596806      -82.639702      -23.209484
 H         -30.613983      -83.576187      -25.150536
 H         -29.579220      -84.572479      -23.969381
 H         -29.481909      -80.426224      -23.076200
 H         -28.545900      -80.760933      -21.678417
 H         -31.327765      -83.941032      -22.498512
 H         -31.646948      -82.465912      -23.507679
 H         -30.760983      -81.711266      -21.395527
 H         -29.491251      -83.101707      -21.425644
