20
 generated by VMD
 C          -0.949904      -13.423579        0.832627
 N          -0.273140      -13.378705       -0.064373
 H          -4.689328      -13.392214        2.155566
 H          -5.566166      -13.598766        0.667893
 C          -5.257545      -14.149813        1.553755
 C          -6.450901      -14.581229        2.489381
 C          -4.374078      -15.283142        1.071812
 C          -7.233292      -15.622976        1.724674
 C          -5.208624      -16.404329        0.418450
 C          -6.455029      -16.810101        1.210370
 H          -7.006574      -13.693705        2.482714
 H          -6.072176      -14.914769        3.457674
 H          -3.776630      -14.792300        0.307195
 H          -3.765224      -15.659268        1.895259
 H          -7.579798      -15.102194        0.793607
 H          -8.117337      -15.946198        2.302418
 H          -4.526560      -17.265566        0.299825
 H          -5.455169      -16.019842       -0.587044
 H          -7.129059      -17.483362        0.665007
 H          -6.094856      -17.278702        2.106595
