20
 generated by VMD
 C         -10.559906      -33.518124       -8.830941
 N         -11.111327      -32.674763       -9.309109
 H         -11.761189      -36.883518       -8.134198
 H         -12.199497      -36.024139       -6.649447
 C         -12.384954      -36.953377       -7.247630
 C         -11.944138      -38.205208       -6.432387
 C         -13.897252      -36.898125       -7.513855
 C         -12.818717      -38.466000       -5.195786
 C         -14.752949      -37.234978       -6.285862
 C         -14.324555      -38.433254       -5.528182
 H         -10.888212      -38.136391       -6.212676
 H         -11.982635      -39.075512       -7.128481
 H         -14.248430      -35.954117       -7.886885
 H         -14.201318      -37.631508       -8.255703
 H         -12.698957      -37.665745       -4.468414
 H         -12.402695      -39.350094       -4.642900
 H         -15.820557      -37.260109       -6.588669
 H         -14.563987      -36.351276       -5.663776
 H         -14.839785      -38.532310       -4.577296
 H         -14.600420      -39.339977       -6.153903
