20
 generated by VMD
 C          -4.610241      -21.009155        2.280651
 N          -5.110422      -20.101561        2.704730
 H          -5.018632      -19.011337       -0.421593
 H          -5.865133      -20.559313       -0.208804
 C          -5.863834      -19.611462       -0.767231
 C          -5.614473      -19.845572       -2.229386
 C          -7.203744      -18.888815       -0.615212
 C          -6.705762      -20.656349       -2.937876
 C          -8.343853      -19.724943       -1.176104
 C          -8.116895      -20.117825       -2.664190
 H          -4.672077      -20.372911       -2.330611
 H          -5.597801      -18.803413       -2.733392
 H          -7.317632      -18.741533        0.411854
 H          -7.113983      -18.005610       -1.237424
 H          -6.618589      -21.662426       -2.427799
 H          -6.525211      -20.819513       -4.035397
 H          -9.327308      -19.259624       -1.101600
 H          -8.430795      -20.696962       -0.619962
 H          -8.884332      -20.904127       -2.896889
 H          -8.286868      -19.196039       -3.250170
