20
 generated by VMD
 C         -40.224342     -117.014435      -34.336113
 N         -39.449688     -116.187782      -34.570286
 H         -41.416489     -115.783348      -37.870663
 H         -41.114697     -117.511169      -34.148235
 C         -42.558674     -115.994415      -37.977127
 C         -43.229065     -116.029083      -39.320465
 C         -43.355011     -115.937988      -36.741131
 C         -44.559608     -116.794418      -39.323296
 C         -44.517960     -116.882378      -36.798779
 C         -45.267582     -116.392014      -38.014835
 H         -42.484898     -116.449242      -40.027954
 H         -43.508110     -115.051346      -39.727161
 H         -42.741657     -116.299393      -35.814919
 H         -43.685688     -114.918900      -36.441975
 H         -44.455986     -117.846069      -39.316868
 H         -45.163219     -116.455254      -40.183907
 H         -45.226978     -117.019173      -35.991604
 H         -44.287907     -117.930260      -37.051838
 H         -46.217735     -116.925537      -37.997387
 H         -45.273701     -115.361351      -37.790447
