20
 generated by VMD
 C         -46.493778     -124.430435      -36.227299
 N         -46.980309     -125.304482      -35.605698
 H         -44.535255     -121.604683      -37.930790
 H         -45.991936     -123.546783      -36.563164
 C         -44.480904     -121.569489      -38.971985
 C         -43.276802     -121.612526      -39.829170
 C         -45.751476     -120.865883      -39.621307
 C         -43.605042     -121.917168      -41.321983
 C         -45.919010     -121.245140      -41.089348
 C         -44.609116     -120.932396      -41.789349
 H         -42.593002     -122.387344      -39.500851
 H         -42.546078     -120.767189      -39.621197
 H         -46.625008     -121.020195      -39.013393
 H         -45.457699     -119.755112      -39.594917
 H         -43.818108     -122.927277      -41.483498
 H         -42.726521     -121.919395      -41.984928
 H         -46.738846     -120.560455      -41.399822
 H         -46.193783     -122.254227      -41.223942
 H         -44.878040     -121.051361      -42.875412
 H         -44.308922     -119.945374      -41.568371
