20
 generated by VMD
 C         -18.119617      -49.778969       -8.762832
 N         -19.222206      -49.930122       -8.895873
 H         -16.404032      -47.086697      -10.074061
 H         -17.229931      -48.572098      -10.270832
 C         -16.728662      -47.808311      -10.844539
 C         -15.548631      -48.389763      -11.605123
 C         -17.723804      -47.040859      -11.687239
 C         -15.861961      -49.042595      -12.899711
 C         -18.077715      -47.739281      -13.012081
 C         -16.834274      -48.174473      -13.811161
 H         -15.023108      -49.039864      -10.915239
 H         -14.792799      -47.573349      -11.757568
 H         -18.603125      -46.847775      -11.087683
 H         -17.304970      -46.082115      -11.948627
 H         -16.295130      -50.020893      -12.811767
 H         -14.893862      -49.115784      -13.407661
 H         -18.704489      -47.124317      -13.623162
 H         -18.659353      -48.682728      -12.818494
 H         -17.181904      -48.649216      -14.800057
 H         -16.240097      -47.249870      -14.092514
