20
 generated by VMD
 C         -13.728657      -42.887058       -5.975873
 N         -12.874355      -43.170578       -6.638425
 H         -14.931527      -45.169010       -8.924499
 H         -14.343897      -43.681648       -9.734751
 C         -15.212271      -44.353012       -9.718769
 C         -16.506363      -43.576397       -9.312778
 C         -15.315093      -45.117355      -11.033887
 C         -16.853464      -42.674259      -10.476679
 C         -15.799903      -44.246132      -12.195483
 C         -17.094034      -43.572189      -11.688728
 H         -16.389050      -42.986713       -8.424792
 H         -17.292215      -44.279808       -9.071789
 H         -14.327896      -45.584835      -11.263392
 H         -15.954076      -46.063396      -11.018332
 H         -16.059172      -41.971046      -10.671565
 H         -17.760626      -42.106281      -10.271729
 H         -15.895615      -44.926651      -13.086646
 H         -15.153197      -43.438358      -12.426891
 H         -17.538481      -42.943611      -12.527069
 H         -17.843847      -44.354225      -11.383977
