20
 generated by VMD
 C         -10.732966      -37.038582       -8.564927
 N         -10.826084      -36.408665       -7.659222
 H         -13.305076      -37.413712       -7.516518
 H         -14.399786      -38.121281       -6.297467
 C         -13.944464      -38.233986       -7.329879
 C         -13.106916      -39.484848       -7.394496
 C         -15.086955      -38.299026       -8.294764
 C         -13.895527      -40.752491       -7.231309
 C         -15.879558      -39.532413       -8.270817
 C         -15.032286      -40.824165       -8.222195
 H         -12.331377      -39.353096       -6.666187
 H         -12.566024      -39.558983       -8.326693
 H         -15.756185      -37.434391       -8.105194
 H         -14.679007      -38.090050       -9.345496
 H         -14.271360      -40.773544       -6.218697
 H         -13.260275      -41.684433       -7.352570
 H         -16.531214      -39.592140       -9.110097
 H         -16.580935      -39.586590       -7.383883
 H         -15.658392      -41.723328       -8.132421
 H         -14.523521      -40.891716       -9.218794
