20
 generated by VMD
 C         -50.376705     -131.882965      -46.972973
 N         -49.935543     -132.461441      -47.938507
 H         -48.125664     -131.799759      -43.690979
 H         -50.631546     -131.804535      -45.881390
 C         -48.714264     -132.444870      -43.127136
 C         -49.486984     -133.633636      -43.671623
 C         -48.704418     -132.298172      -41.600731
 C         -49.198776     -134.944717      -42.841118
 C         -48.485088     -133.567062      -40.877789
 C         -49.520046     -134.609024      -41.380753
 H         -49.244884     -133.728485      -44.806232
 H         -50.571442     -133.389145      -43.611076
 H         -47.847328     -131.574341      -41.346874
 H         -49.648510     -131.892105      -41.297676
 H         -48.239887     -135.464905      -42.988522
 H         -49.963341     -135.638977      -43.208256
 H         -48.474674     -133.556671      -39.829597
 H         -47.449898     -134.040543      -41.011951
 H         -49.299583     -135.544968      -40.751110
 H         -50.576698     -134.212616      -41.283588
