20
 generated by VMD
 C         -59.715252     -157.315201      -56.949795
 N         -60.860683     -156.971588      -56.999210
 H         -59.757812     -157.284576      -53.082920
 H         -58.680321     -157.610535      -56.756260
 C         -59.164108     -157.876068      -52.391304
 C         -57.868980     -157.257233      -51.956074
 C         -59.406437     -159.333649      -52.484539
 C         -57.377354     -157.996323      -50.765015
 C         -58.667915     -160.090866      -51.416882
 C         -57.298843     -159.539749      -51.098373
 H         -58.133766     -156.207016      -51.585938
 H         -57.019264     -157.178741      -52.752018
 H         -60.541344     -159.516037      -52.422474
 H         -59.154938     -159.503708      -53.568573
 H         -58.128807     -157.777512      -49.865551
 H         -56.356506     -157.732986      -50.555248
 H         -58.566967     -161.120087      -51.778267
 H         -59.342861     -160.066422      -50.511372
 H         -56.906086     -160.170044      -50.220161
 H         -56.597466     -159.858429      -51.903084
