20
 generated by VMD
 C         -77.883865     -210.009460      -76.379105
 N         -77.275986     -210.986755      -76.170464
 H         -80.539810     -212.605042      -74.964928
 H         -78.505577     -209.205780      -76.566597
 C         -80.278740     -213.200317      -74.104958
 C         -78.814743     -213.246552      -73.705353
 C         -81.293831     -213.998489      -73.265343
 C         -78.746284     -212.976974      -72.123352
 C         -80.993416     -213.823242      -71.758812
 C         -79.544769     -213.931427      -71.164169
 H         -78.240952     -212.598053      -74.316925
 H         -78.287193     -214.202209      -73.946999
 H         -82.255760     -213.626404      -73.581856
 H         -81.184929     -215.062637      -73.445496
 H         -79.109497     -211.981461      -71.912994
 H         -77.748032     -213.203232      -71.729042
 H         -81.740517     -214.428894      -71.134155
 H         -81.318840     -212.731888      -71.462067
 H         -79.516838     -213.531250      -70.009682
 H         -79.154678     -214.966797      -71.217247
