20
 generated by VMD
 C         -19.946745      -61.264427      -16.961071
 N         -19.638620      -60.582409      -16.051147
 H         -22.159676      -61.986572      -18.204201
 H         -20.085264      -62.097546      -17.716936
 C         -22.919191      -62.662086      -17.783484
 C         -24.023314      -63.241898      -18.526083
 C         -22.880676      -63.009052      -16.343477
 C         -24.383516      -64.621140      -18.130665
 C         -23.485893      -64.260490      -15.712977
 C         -24.678619      -64.678383      -16.531137
 H         -23.776960      -63.236885      -19.597466
 H         -24.915684      -62.557964      -18.471203
 H         -21.818729      -63.016132      -16.030777
 H         -23.214634      -62.117390      -15.819430
 H         -23.638014      -65.276863      -18.340649
 H         -25.285574      -65.032181      -18.557772
 H         -23.686146      -64.162445      -14.625661
 H         -22.761030      -65.107681      -15.824680
 H         -24.770153      -65.740150      -16.401646
 H         -25.614321      -64.152290      -16.400055
