20
 generated by VMD
 C         -78.652046     -209.833817      -76.708092
 N         -77.690117     -210.133743      -77.260162
 H         -79.714394     -211.556915      -74.314140
 H         -79.481117     -209.504181      -76.201309
 C         -79.561996     -212.109207      -73.438042
 C         -78.290222     -212.387482      -72.710022
 C         -80.567665     -213.137634      -73.123848
 C         -78.355202     -212.803864      -71.191177
 C         -80.702209     -213.377869      -71.569412
 C         -79.352959     -213.791199      -70.988564
 H         -77.627281     -211.530411      -72.738533
 H         -77.757401     -213.119370      -73.259529
 H         -81.562347     -212.880722      -73.551537
 H         -80.134811     -214.017471      -73.544121
 H         -78.338707     -211.871857      -70.624748
 H         -77.348846     -213.231491      -70.887115
 H         -81.670654     -213.869522      -71.363121
 H         -80.975883     -212.282501      -71.118462
 H         -79.500031     -213.989212      -69.968872
 H         -79.020699     -214.816422      -71.203888
