20
 generated by VMD
 C         -31.576462      -93.258324      -26.117754
 N         -32.100769      -93.934486      -25.358847
 H         -33.620678      -94.507362      -28.016148
 H         -30.974041      -92.724022      -26.740475
 C         -33.990223      -93.503319      -28.333929
 C         -35.426323      -93.108299      -28.218718
 C         -33.419327      -92.880234      -29.599653
 C         -35.656429      -91.632881      -28.107914
 C         -33.788681      -91.336960      -29.693781
 C         -35.237038      -91.034767      -29.516163
 H         -35.948582      -93.640556      -27.350506
 H         -36.049156      -93.499557      -29.053646
 H         -32.320194      -92.975250      -29.544407
 H         -33.891518      -93.453392      -30.430550
 H         -35.089466      -91.054123      -27.307301
 H         -36.732124      -91.406662      -28.142208
 H         -33.510372      -90.877884      -30.713045
 H         -33.133850      -90.883888      -28.965559
 H         -35.351986      -89.958961      -29.373148
 H         -35.959316      -91.247894      -30.313450
