20
 generated by VMD
 C         -79.599907     -206.926010      -73.597794
 N         -80.338860     -205.992142      -73.519318
 H         -78.185181     -205.075500      -70.604164
 H         -78.925507     -207.731277      -73.813095
 C         -77.130562     -205.329330      -70.424095
 C         -76.036385     -204.358047      -70.884903
 C         -76.832359     -206.628281      -69.798119
 C         -74.595406     -204.685471      -70.301399
 C         -75.403770     -206.719879      -69.127022
 C         -74.239838     -206.103271      -69.958717
 H         -76.360146     -203.368240      -70.494797
 H         -76.141785     -204.274460      -72.009949
 H         -77.583771     -206.818619      -69.008545
 H         -76.932129     -207.517593      -70.435555
 H         -74.623817     -204.156296      -69.333382
 H         -73.948608     -204.106293      -70.951332
 H         -75.321609     -207.834091      -68.735458
 H         -75.399612     -206.082962      -68.267761
 H         -73.306938     -206.018585      -69.345833
 H         -74.053223     -206.690018      -70.873817
