20
 generated by VMD
 C         -57.517529     -162.178146      -56.188095
 N         -57.152004     -162.153015      -57.311203
 H         -59.600124     -164.818146      -55.142960
 H         -57.785809     -162.169205      -55.152233
 C         -60.534489     -164.555923      -54.802036
 C         -60.827560     -164.463379      -53.270191
 C         -61.727875     -164.531357      -55.775188
 C         -61.855846     -163.290359      -53.102238
 C         -62.908207     -163.668030      -55.449200
 C         -63.255241     -163.614670      -53.913723
 H         -59.941795     -164.139709      -52.794697
 H         -61.210861     -165.412109      -52.964409
 H         -61.387733     -164.092987      -56.715515
 H         -62.058750     -165.618607      -55.990284
 H         -61.430851     -162.488342      -53.711452
 H         -61.932407     -162.959427      -52.141323
 H         -63.785233     -164.033081      -55.947506
 H         -62.736774     -162.553513      -55.603733
 H         -63.932148     -162.829773      -53.550362
 H         -63.682007     -164.507187      -53.479389
