20
 generated by VMD
 C         -22.529224      -55.235748      -17.248552
 N         -22.965210      -54.708641      -18.125160
 H         -20.670546      -56.051308      -14.555440
 H         -21.776695      -55.403332      -16.426285
 C         -20.357706      -57.071426      -14.326465
 C         -20.728842      -57.725853      -13.072059
 C         -19.311369      -57.755394      -15.051857
 C         -20.873653      -59.256203      -13.042988
 C         -19.429646      -59.321632      -15.189914
 C         -19.775309      -60.050545      -13.844449
 H         -21.693909      -57.246864      -12.753260
 H         -19.916632      -57.446407      -12.411608
 H         -19.441084      -57.354958      -16.043091
 H         -18.296816      -57.434334      -14.725595
 H         -21.810671      -59.410179      -13.556363
 H         -20.981316      -59.663502      -12.060431
 H         -18.498564      -59.734013      -15.624571
 H         -20.304995      -59.519665      -15.811934
 H         -20.147509      -61.112602      -14.061559
 H         -18.930031      -60.128082      -13.206810
