20
 generated by VMD
 C         -28.056200      -72.761803      -18.152546
 N         -28.521646      -73.572174      -17.505339
 H         -24.666759      -71.527710      -18.752104
 H         -27.897732      -71.886024      -18.907221
 C         -25.134741      -71.617058      -19.736303
 C         -24.638542      -72.761261      -20.582909
 C         -25.952063      -70.388084      -20.356358
 C         -24.998573      -72.838547      -22.015514
 C         -26.557699      -70.755554      -21.799982
 C         -25.510809      -71.638092      -22.721264
 H         -25.050770      -73.656021      -20.035110
 H         -23.455441      -72.851509      -20.434523
 H         -26.635857      -70.144501      -19.592968
 H         -25.198463      -69.577438      -20.387831
 H         -25.609451      -73.715179      -22.267719
 H         -24.056931      -72.974884      -22.585541
 H         -26.941462      -69.911362      -22.459431
 H         -27.550901      -71.342720      -21.509754
 H         -26.110891      -71.893066      -23.625397
 H         -24.697729      -70.993011      -22.908583
