20
 generated by VMD
 C         -70.240112     -181.195679      -63.607468
 N         -71.082603     -181.918686      -63.289192
 H         -68.085403     -181.458298      -60.898315
 H         -69.440132     -180.453842      -63.785233
 C         -67.144821     -180.803787      -60.851185
 C         -65.761993     -181.456482      -60.480442
 C         -67.338715     -179.355713      -60.542393
 C         -64.546486     -180.621384      -60.694073
 C         -66.155266     -178.564972      -60.896801
 C         -64.887138     -179.125229      -60.238914
 H         -65.574120     -182.411102      -60.975597
 H         -65.713333     -181.932571      -59.512421
 H         -68.246620     -179.067230      -61.124401
 H         -67.674156     -179.467148      -59.454231
 H         -64.312904     -180.426849      -61.836426
 H         -63.641750     -181.152634      -60.142551
 H         -66.319702     -177.493591      -60.723213
 H         -66.112579     -178.612427      -61.985607
 H         -64.026367     -178.551453      -60.524464
 H         -65.115639     -179.112473      -59.159214
