20
 generated by VMD
 C         -13.695384      -42.975136       -6.049935
 N         -12.876176      -43.041981       -6.797431
 H         -14.706824      -44.847908       -8.787294
 H         -14.312206      -43.450481       -9.712396
 C         -15.077085      -44.259117       -9.568417
 C         -16.449800      -43.610790       -9.338648
 C         -15.220556      -45.031799      -10.850780
 C         -16.942892      -42.677750      -10.466919
 C         -15.821766      -44.216690      -12.053327
 C         -17.133265      -43.418980      -11.748469
 H         -16.297136      -42.874134       -8.518614
 H         -17.233307      -44.414486       -9.098150
 H         -14.199971      -45.353519      -11.097816
 H         -15.875544      -45.901829      -10.724704
 H         -16.200121      -41.877377      -10.631066
 H         -17.891191      -42.213974      -10.177899
 H         -15.881880      -44.877075      -12.883018
 H         -15.178892      -43.328739      -12.411617
 H         -17.447163      -42.772942      -12.527588
 H         -17.952751      -44.105541      -11.607324
