20
 generated by VMD
 C         -23.433857      -53.268501      -14.085672
 N         -24.139156      -53.171761      -14.975220
 H         -20.551592      -55.465199      -15.252045
 H         -22.812918      -53.256371      -13.373995
 C         -19.540316      -55.416752      -14.602985
 C         -19.149321      -54.156151      -13.806468
 C         -18.545403      -56.486042      -14.779770
 C         -18.220345      -54.505081      -12.576782
 C         -17.618166      -56.658188      -13.591911
 C         -17.064169      -55.358524      -13.019604
 H         -20.008078      -53.690563      -13.356724
 H         -18.546555      -53.541634      -14.426918
 H         -19.148138      -57.428249      -14.907462
 H         -18.033558      -56.326260      -15.694650
 H         -18.941803      -54.999382      -11.904535
 H         -17.784266      -53.634331      -12.110852
 H         -16.810511      -57.383717      -13.811755
 H         -18.224459      -57.137466      -12.805320
 H         -16.377586      -55.549534      -12.150351
 H         -16.523417      -54.823689      -13.817844
