20
 generated by VMD
 C         -20.448912      -61.476265      -16.915300
 N         -19.379778      -61.079731      -17.257887
 H         -21.630943      -64.674683      -16.737329
 H         -21.264616      -61.879955      -16.452757
 C         -22.686119      -64.818169      -17.101969
 C         -23.114367      -64.251724      -18.435268
 C         -23.703772      -65.038414      -15.973142
 C         -24.488394      -64.584549      -18.807032
 C         -25.103773      -65.455345      -16.470263
 C         -25.551510      -64.502220      -17.605381
 H         -22.405432      -64.632164      -19.224623
 H         -22.893515      -63.088940      -18.523094
 H         -23.192499      -65.741905      -15.324443
 H         -23.716003      -64.000435      -15.415804
 H         -24.442278      -65.628929      -19.222181
 H         -24.688349      -63.941116      -19.630505
 H         -25.798008      -65.410995      -15.633074
 H         -24.986212      -66.429153      -16.982220
 H         -26.414732      -64.920250      -18.048206
 H         -25.702396      -63.478676      -17.198389
