20
 generated by VMD
 C         -13.782428      -29.275820       -7.352668
 N         -13.428305      -29.061441       -8.392416
 H         -11.596351      -30.275524       -4.745284
 H         -10.189096      -30.126043       -3.694102
 C         -10.725954      -30.861568       -4.270708
 C          -9.838849      -31.403881       -5.482111
 C         -11.207487      -31.958626       -3.386178
 C          -8.654075      -32.339451       -5.011962
 C         -10.104103      -32.787663       -2.870228
 C          -9.138053      -33.389469       -3.991196
 H          -9.438645      -30.571642       -6.016007
 H         -10.474536      -31.981302       -6.211637
 H         -11.652108      -31.398636       -2.532265
 H         -12.036699      -32.493214       -3.865838
 H          -7.794154      -31.725746       -4.574187
 H          -8.287221      -32.781807       -5.963417
 H         -10.415018      -33.636196       -2.263102
 H          -9.527447      -32.127163       -2.210189
 H          -8.199806      -33.738476       -3.462930
 H          -9.614032      -34.301052       -4.440916
