20
 generated by VMD
 C         -78.702065     -209.040802      -77.138092
 N         -79.632431     -208.553680      -76.589088
 H         -78.380585     -209.141724      -73.210251
 H         -77.694328     -209.429199      -77.540878
 C         -78.239838     -209.827927      -72.357162
 C         -77.038704     -209.783096      -71.452621
 C         -79.159042     -211.076492      -72.261147
 C         -77.087105     -210.467804      -70.104622
 C         -79.423103     -211.475510      -70.899879
 C         -78.093285     -211.687241      -70.246735
 H         -76.750938     -208.725006      -71.374847
 H         -76.206871     -210.210434      -72.003548
 H         -80.049774     -210.848007      -72.912346
 H         -78.649139     -211.992554      -72.656738
 H         -77.538910     -209.791275      -69.409164
 H         -76.124512     -210.776703      -69.714340
 H         -80.079887     -212.322647      -70.812187
 H         -79.960701     -210.574600      -70.603195
 H         -78.320702     -211.921402      -69.178978
 H         -77.694862     -212.663834      -70.630798
