20
 generated by VMD
 C         -11.763656      -37.410137       -7.231393
 N         -11.202906      -37.861893       -8.056215
 H         -12.359494      -40.706161       -8.363403
 H         -13.670243      -40.119446       -7.158638
 C         -13.495421      -40.630295       -8.172805
 C         -14.135383      -41.998390       -7.966852
 C         -14.145245      -39.810673       -9.286006
 C         -15.663151      -41.939774       -7.887049
 C         -15.624936      -39.682053       -8.969759
 C         -16.298012      -41.049881       -8.922852
 H         -13.690690      -42.287231       -7.012969
 H         -13.798156      -42.648853       -8.767406
 H         -13.699659      -38.824123       -9.270461
 H         -13.934002      -40.316296      -10.218781
 H         -15.920832      -41.582367       -6.917009
 H         -16.092632      -42.942833       -8.045177
 H         -16.169106      -39.095566       -9.652893
 H         -15.843061      -39.164803       -7.957523
 H         -17.382860      -40.843952       -8.766497
 H         -16.239513      -41.501915       -9.952924
