20
 generated by VMD
 C         -69.910164     -183.060928      -65.917282
 N         -71.040802     -183.015823      -65.719421
 H         -67.112289     -183.325836      -63.147366
 H         -68.894707     -183.148102      -66.138145
 C         -67.335320     -182.871887      -62.207169
 C         -67.702606     -183.576859      -61.000530
 C         -67.390900     -181.420456      -61.969635
 C         -66.965096     -183.194153      -59.767460
 C         -66.365807     -180.999069      -60.912319
 C         -66.724922     -181.688675      -59.607563
 H         -67.599037     -184.641388      -61.220238
 H         -68.734428     -183.588501      -60.776093
 H         -67.147827     -180.725800      -62.830784
 H         -68.374580     -181.131134      -61.745289
 H         -65.822548     -183.517258      -59.729454
 H         -67.456413     -183.660095      -58.852242
 H         -66.404587     -179.924377      -60.851730
 H         -65.362457     -181.259430      -61.301960
 H         -65.855293     -181.410751      -58.903671
 H         -67.561096     -181.210129      -59.063686
