20
 generated by VMD
 C         -13.484358      -30.691912       -8.330925
 N         -13.362018      -30.058624       -9.248270
 H         -10.968879      -31.608829       -5.872196
 H         -11.178322      -31.982483       -4.136219
 C         -11.004508      -32.389141       -5.087734
 C          -9.601750      -32.885048       -4.904716
 C         -12.104777      -33.508186       -5.305236
 C          -9.515155      -34.049400       -3.980794
 C         -11.900000      -34.651424       -4.322314
 C         -10.479043      -35.196941       -4.315877
 H          -9.024072      -32.044064       -4.478072
 H          -9.237672      -33.175163       -5.895188
 H         -13.094181      -33.015213       -5.286185
 H         -11.837125      -33.842697       -6.317060
 H          -9.733174      -33.701153       -2.957241
 H          -8.491793      -34.494816       -3.977978
 H         -12.560643      -35.540165       -4.628571
 H         -12.131699      -34.327747       -3.305863
 H         -10.287379      -36.016514       -3.575962
 H         -10.327423      -35.538113       -5.334498
