20
 generated by VMD
 C         -73.936920     -201.365891      -65.558472
 N         -72.957588     -200.987610      -66.022812
 H         -75.837646     -198.434937      -67.452019
 H         -74.750389     -202.002930      -65.326698
 C         -75.188736     -197.791992      -68.026146
 C         -74.879501     -196.303299      -67.981583
 C         -74.456062     -198.585236      -69.137054
 C         -73.518654     -195.928589      -68.446701
 C         -73.380943     -197.843521      -69.930580
 C         -72.563011     -196.982178      -69.098404
 H         -75.078476     -196.108429      -66.819824
 H         -75.636253     -195.672440      -68.435120
 H         -74.055473     -199.383667      -68.488754
 H         -75.127312     -199.140121      -69.859001
 H         -72.858604     -195.471863      -67.667015
 H         -73.664886     -195.143448      -69.190720
 H         -73.853271     -197.137665      -70.634384
 H         -72.708809     -198.641052      -70.436821
 H         -72.070595     -197.584183      -68.409691
 H         -71.761200     -196.369690      -69.644043
