20
 generated by VMD
 C          -6.407527      -22.429436        1.926161
 N          -6.311707      -22.937950        2.907098
 H          -5.515038      -19.919077       -0.494506
 H          -7.045937      -20.716587       -0.304396
 C          -6.377079      -20.287336       -1.039455
 C          -5.831821      -21.350422       -1.923645
 C          -7.175142      -19.245573       -1.830989
 C          -6.968685      -21.959070       -2.719070
 C          -8.326310      -19.880415       -2.583828
 C          -7.779885      -20.953127       -3.541163
 H          -5.360820      -22.086905       -1.314504
 H          -5.096768      -20.872629       -2.676923
 H          -7.489284      -18.400747       -1.119435
 H          -6.397687      -18.681797       -2.451642
 H          -7.662884      -22.567509       -2.089706
 H          -6.532053      -22.745878       -3.400795
 H          -8.850788      -19.111330       -3.201536
 H          -9.106228      -20.155039       -1.865271
 H          -8.597326      -21.577291       -3.948809
 H          -7.204454      -20.521433       -4.408996
