20
 generated by VMD
 C         -41.106670     -104.455299      -35.786224
 N         -42.023449     -104.909065      -36.331944
 H         -37.899582     -104.238289      -33.816017
 H         -40.125225     -104.323692      -35.334644
 C         -38.122253     -104.950424      -32.968418
 C         -36.870197     -105.338676      -32.122475
 C         -39.151833     -105.982788      -33.228889
 C         -37.146515     -106.510262      -31.171978
 C         -39.331963     -106.988167      -32.188271
 C         -38.022915     -107.669281      -31.728067
 H         -36.415096     -104.419189      -31.620998
 H         -36.150856     -105.670975      -32.987297
 H         -40.187309     -105.499741      -33.247845
 H         -38.993717     -106.463348      -34.141228
 H         -37.772861     -106.236954      -30.338194
 H         -36.103313     -106.799065      -30.940786
 H         -40.010723     -107.821114      -32.633160
 H         -40.024471     -106.705978      -31.334209
 H         -38.165218     -108.484474      -31.072819
 H         -37.437881     -108.054985      -32.625885
