20
 generated by VMD
 C         -23.859991      -69.530083      -16.896652
 N         -24.186672      -69.913269      -15.861396
 H         -23.873152      -66.971611      -18.872633
 H         -23.400484      -69.137077      -17.708817
 C         -24.486111      -67.713661      -19.452503
 C         -23.868603      -68.407600      -20.500116
 C         -25.948437      -67.431984      -19.209677
 C         -24.512146      -69.686539      -20.785038
 C         -26.644712      -68.770691      -19.641342
 C         -26.043791      -69.353004      -20.912329
 H         -22.867661      -68.702126      -20.220776
 H         -23.782284      -67.650017      -21.415361
 H         -26.204983      -67.149284      -18.158113
 H         -26.439888      -66.684334      -19.897253
 H         -24.310814      -70.460419      -20.042902
 H         -24.190264      -70.146240      -21.779469
 H         -27.668680      -68.456001      -19.832708
 H         -26.454916      -69.402008      -18.776918
 H         -26.477409      -70.302856      -21.272099
 H         -26.219963      -68.756256      -21.810980
