20
 generated by VMD
 C         -67.540123     -179.992050      -58.344986
 N         -68.354568     -179.984924      -59.191971
 H         -67.387077     -176.519058      -59.922630
 H         -66.814957     -180.100800      -57.567257
 C         -66.353348     -176.211212      -60.142323
 C         -66.084671     -175.398376      -61.402546
 C         -65.242004     -176.761017      -59.376209
 C         -64.840057     -174.498428      -61.172215
 C         -64.046944     -175.818039      -59.180016
 C         -63.644062     -175.265106      -60.549320
 H         -67.026390     -175.012024      -61.792389
 H         -65.766273     -176.160049      -62.196625
 H         -65.443321     -177.087540      -58.400555
 H         -64.784225     -177.593872      -59.865658
 H         -65.158531     -173.607468      -60.659164
 H         -64.506599     -174.101730      -62.059849
 H         -63.197674     -176.222687      -58.622593
 H         -64.503326     -174.939301      -58.672321
 H         -62.765846     -174.546402      -60.486755
 H         -63.191406     -176.055466      -61.263813
