20
 generated by VMD
 C         -78.755699     -204.433228      -70.736771
 N         -79.736610     -204.196503      -70.225250
 H         -76.283089     -203.208588      -68.097008
 H         -77.737061     -204.679276      -71.079094
 C         -75.442200     -202.669159      -68.494255
 C         -75.793854     -201.678818      -69.547897
 C         -74.351112     -203.557068      -68.829132
 C         -74.756691     -201.644821      -70.756081
 C         -73.027962     -202.892105      -69.282494
 C         -73.297478     -201.824158      -70.395142
 H         -75.796852     -200.686111      -69.195511
 H         -76.797035     -201.897202      -69.966698
 H         -74.124199     -204.267227      -68.063538
 H         -74.704185     -204.124710      -69.651390
 H         -74.849579     -200.700836      -71.275009
 H         -75.012321     -202.431412      -71.521080
 H         -72.371468     -203.678162      -69.761696
 H         -72.598740     -202.490250      -68.376640
 H         -73.054260     -200.850342      -70.157845
 H         -72.681610     -201.958664      -71.316017
