20
 generated by VMD
 C         -68.609283     -185.421646      -67.090210
 N         -67.661263     -185.073349      -66.527962
 H         -69.374252     -187.405334      -64.997093
 H         -69.484550     -185.733917      -67.551476
 C         -69.601257     -187.216431      -63.910961
 C         -69.997681     -185.828415      -63.683292
 C         -69.724510     -188.366394      -62.955692
 C         -69.709335     -185.342636      -62.230293
 C         -69.708099     -187.917664      -61.479439
 C         -70.149658     -186.374634      -61.221043
 H         -71.028046     -185.724121      -63.912014
 H         -69.417229     -185.258789      -64.327118
 H         -70.657318     -188.817947      -63.108273
 H         -68.893288     -189.039337      -63.072510
 H         -70.211449     -184.379593      -62.083965
 H         -68.644379     -185.257324      -62.038815
 H         -68.683784     -188.052261      -61.007877
 H         -70.247047     -188.647064      -60.867161
 H         -71.143234     -186.552139      -61.189274
 H         -70.043793     -185.944122      -60.226078
