20
 generated by VMD
 C         -31.277018      -77.629494      -26.052017
 N         -31.721756      -77.989677      -27.094131
 H         -29.280174      -79.306320      -24.263464
 H         -31.244036      -77.119576      -25.066521
 C         -28.954321      -79.675407      -23.314528
 C         -27.497818      -79.672653      -23.070139
 C         -29.847763      -80.624962      -22.654861
 C         -26.918659      -80.480370      -21.956291
 C         -29.297586      -81.444374      -21.529692
 C         -27.782553      -81.798401      -21.592974
 H         -27.131168      -78.656807      -22.998379
 H         -27.120449      -80.035194      -24.013245
 H         -30.759912      -80.122200      -22.199711
 H         -30.209864      -81.249184      -23.442913
 H         -27.017010      -79.742607      -21.091003
 H         -25.901823      -80.781456      -22.006279
 H         -29.757435      -82.387955      -21.439491
 H         -29.352987      -80.879448      -20.523584
 H         -27.538921      -82.121704      -20.611403
 H         -27.613680      -82.535217      -22.354132
