20
 generated by VMD
 C         -15.089252      -45.842297       -7.122455
 N         -14.617115      -46.751572       -6.713192
 H         -15.559083      -44.159973       -9.069980
 H         -14.566800      -44.392765      -10.549335
 C         -15.557449      -44.435631      -10.142619
 C         -16.433023      -43.400661      -10.861890
 C         -16.091690      -45.837681      -10.281032
 C         -16.647463      -43.843464      -12.303196
 C         -16.331993      -46.249584      -11.706563
 C         -17.191498      -45.299007      -12.447307
 H         -15.984914      -42.399254      -10.740278
 H         -17.346197      -43.358845      -10.274112
 H         -15.323665      -46.525219       -9.788412
 H         -17.099508      -45.963291       -9.827088
 H         -15.732097      -43.753567      -12.923916
 H         -17.350435      -43.143658      -12.766991
 H         -16.800959      -47.305782      -11.799113
 H         -15.376637      -46.302998      -12.245438
 H         -17.252621      -45.643959      -13.496095
 H         -18.192844      -45.264198      -12.117959
