20
 generated by VMD
 C         -11.554687      -41.577198       -6.901248
 N         -11.586507      -42.413631       -6.137521
 H         -14.780878      -42.622269       -8.179116
 H         -15.000346      -41.507500       -9.449192
 C         -15.289096      -42.513592       -9.138603
 C         -16.763802      -42.732986       -8.943347
 C         -14.798982      -43.522911      -10.199880
 C         -17.546978      -42.471325      -10.239354
 C         -15.633677      -43.435425      -11.504508
 C         -17.124443      -43.457886      -11.317228
 H         -17.192249      -42.106625       -8.148246
 H         -16.877943      -43.793297       -8.670261
 H         -13.762814      -43.251892      -10.509738
 H         -14.974559      -44.532166       -9.865689
 H         -17.300171      -41.422165      -10.528430
 H         -18.635906      -42.615231      -10.037783
 H         -15.323579      -44.243443      -12.128568
 H         -15.345610      -42.504723      -12.103972
 H         -17.659021      -43.118397      -12.196774
 H         -17.464354      -44.493073      -11.203254
