20
 generated by VMD
 C         -50.226479     -131.735840      -46.848392
 N         -50.079525     -132.061615      -47.907036
 H         -48.569866     -131.437912      -43.791027
 H         -50.160320     -131.798325      -45.761459
 C         -48.830791     -132.228088      -43.092873
 C         -49.578369     -133.521042      -43.506397
 C         -48.692059     -131.950897      -41.608719
 C         -49.104488     -134.691162      -42.643227
 C         -48.156040     -133.165817      -40.820271
 C         -49.000278     -134.444382      -41.182205
 H         -49.420963     -133.553284      -44.552380
 H         -50.649475     -133.330826      -43.305336
 H         -47.876911     -131.174438      -41.761295
 H         -49.589764     -131.455002      -41.198685
 H         -48.153469     -135.007126      -43.087132
 H         -49.876934     -135.430954      -42.866001
 H         -48.252819     -133.061996      -39.762161
 H         -47.106045     -133.353317      -41.176147
 H         -48.568256     -135.438629      -40.818722
 H         -49.891705     -134.557892      -40.595432
