20
 generated by VMD
 C         -45.004578     -122.742256      -35.409561
 N         -45.387081     -123.755646      -35.062279
 H         -45.300728     -122.856270      -39.236694
 H         -44.791775     -121.773247      -35.689133
 C         -44.944756     -121.879066      -39.472809
 C         -43.495747     -121.397552      -39.599072
 C         -45.941776     -120.695671      -39.450344
 C         -43.262489     -120.509644      -40.790203
 C         -45.770172     -119.956398      -40.756901
 C         -44.374840     -119.415947      -41.070339
 H         -42.841076     -122.251884      -39.603615
 H         -43.325363     -120.731247      -38.674892
 H         -46.889160     -121.101196      -39.268192
 H         -45.757843     -119.940704      -38.675243
 H         -43.322304     -121.226662      -41.644218
 H         -42.306793     -119.902885      -40.752270
 H         -46.332035     -119.009132      -40.812450
 H         -46.167809     -120.576248      -41.701542
 H         -44.214680     -119.077850      -42.085999
 H         -44.177773     -118.561989      -40.509933
