20
 generated by VMD
 C         -55.059444     -148.545990      -45.205677
 N         -54.567127     -148.776291      -44.157112
 H         -54.238792     -148.066025      -48.717609
 H         -55.639896     -148.310638      -46.057076
 C         -54.326824     -147.069946      -49.224926
 C         -53.223469     -146.883652      -50.146118
 C         -55.093437     -145.949066      -48.526733
 C         -53.348152     -145.635391      -50.914791
 C         -55.134281     -144.825348      -49.508999
 C         -53.758457     -144.512573      -50.196636
 H         -53.222965     -147.837753      -50.771843
 H         -52.263367     -146.845810      -49.680561
 H         -56.169250     -146.376282      -48.295925
 H         -54.575817     -145.727722      -47.563374
 H         -54.006054     -145.804611      -51.784077
 H         -52.336956     -145.416397      -51.428493
 H         -55.334736     -143.939377      -48.970825
 H         -56.001915     -144.942780      -50.338104
 H         -53.697334     -143.667068      -50.865002
 H         -53.147720     -144.204575      -49.337177
