20
 generated by VMD
 C         -47.537403     -139.399124      -45.796532
 N         -46.709450     -138.794876      -46.428234
 H         -50.943935     -138.309326      -44.932457
 H         -48.396946     -139.629349      -45.109566
 C         -51.820259     -138.913498      -45.178810
 C         -51.920410     -139.325790      -46.624729
 C         -53.032726     -138.630203      -44.490738
 C         -52.989475     -140.259674      -46.959747
 C         -54.191593     -139.672760      -44.776501
 C         -54.282223     -139.836212      -46.252457
 H         -50.918652     -139.768326      -46.906914
 H         -52.096668     -138.413361      -47.240067
 H         -52.882351     -138.708588      -43.471260
 H         -53.274002     -137.638336      -44.699402
 H         -52.813328     -141.333832      -46.588711
 H         -53.143295     -140.284882      -48.067039
 H         -55.115227     -139.198257      -44.360691
 H         -53.999443     -140.624695      -44.262703
 H         -55.154514     -140.444748      -46.645016
 H         -54.549919     -138.735306      -46.592075
