20
 generated by VMD
 C         -50.290012     -129.490433      -43.499790
 N         -50.863140     -129.827515      -44.437737
 H         -49.152122     -127.957253      -40.816525
 H         -49.987648     -129.162720      -42.522530
 C         -48.099316     -128.219147      -41.156399
 C         -47.790176     -129.677094      -40.969677
 C         -47.048561     -127.169411      -40.858067
 C         -46.462833     -130.016510      -41.652977
 C         -45.631428     -127.554955      -41.341904
 C         -45.270535     -129.072769      -41.143803
 H         -48.472504     -130.354706      -41.380161
 H         -47.790001     -129.974960      -39.849892
 H         -47.202000     -126.124985      -41.341309
 H         -46.942348     -127.109375      -39.828339
 H         -46.669285     -129.927856      -42.708282
 H         -46.152885     -131.067459      -41.632870
 H         -44.732746     -127.057495      -40.872524
 H         -45.517868     -127.247971      -42.478428
 H         -44.282635     -129.327866      -41.641357
 H         -45.116890     -129.337418      -40.092560
