20
 generated by VMD
 C         -10.528594      -35.495888       -8.224415
 N         -10.214893      -36.331249       -8.890129
 H         -13.455711      -37.137386       -6.702777
 H         -14.675386      -38.153328       -5.942697
 C         -14.042150      -38.104778       -6.798603
 C         -13.085815      -39.256931       -6.982270
 C         -15.027287      -38.079517       -7.914888
 C         -13.890780      -40.535786       -6.916368
 C         -15.811374      -39.363602       -8.156673
 C         -14.881195      -40.588829       -8.048717
 H         -12.330800      -39.154076       -6.230072
 H         -12.497475      -39.216316       -7.881995
 H         -15.780288      -37.298634       -7.809753
 H         -14.631838      -37.844101       -8.946472
 H         -14.404166      -40.744804       -5.919651
 H         -13.231977      -41.447552       -6.997321
 H         -16.253233      -39.355057       -9.158245
 H         -16.673822      -39.408512       -7.431349
 H         -15.435134      -41.535843       -7.967756
 H         -14.289429      -40.679031       -9.000372
