20
 generated by VMD
 C         -11.013366      -32.998627       -8.677722
 N         -11.768853      -33.169357       -9.497375
 H         -12.374496      -33.628197       -6.278079
 H         -12.601080      -34.412815       -4.706132
 C         -12.494579      -34.622456       -5.801239
 C         -11.217698      -35.494602       -5.817413
 C         -13.759679      -35.365833       -6.310985
 C         -11.466383      -36.818443       -5.129760
 C         -13.918861      -36.779568       -5.707082
 C         -12.623098      -37.567448       -5.806788
 H         -10.459559      -34.991825       -5.174870
 H         -10.898465      -35.562401       -6.891635
 H         -14.642035      -34.739834       -6.081173
 H         -13.648108      -35.345734       -7.383498
 H         -11.835722      -36.624371       -4.085797
 H         -10.565003      -37.407150       -5.236298
 H         -14.675677      -37.314240       -6.269445
 H         -14.220909      -36.670143       -4.626425
 H         -12.772305      -38.572498       -5.327551
 H         -12.338837      -37.823322       -6.863979
