20
 generated by VMD
 C         -39.765541     -105.436119      -37.278957
 N         -40.133785     -104.373856      -36.953018
 H         -39.558823     -108.563004      -35.412804
 H         -39.358578     -106.470993      -37.354424
 C         -39.591064     -108.560303      -34.336418
 C         -38.454121     -108.187248      -33.539234
 C         -40.479298     -109.681854      -33.851360
 C         -38.837120     -108.136948      -31.993341
 C         -40.908524     -109.532669      -32.445362
 C         -39.699833     -109.287971      -31.430971
 H         -38.077114     -107.256416      -33.829559
 H         -37.697723     -108.908867      -33.745457
 H         -41.306652     -109.808098      -34.551491
 H         -39.859638     -110.612389      -33.914360
 H         -39.328056     -107.165024      -31.782024
 H         -37.881916     -107.986198      -31.502617
 H         -41.584469     -110.406799      -32.143524
 H         -41.494831     -108.622902      -32.483379
 H         -40.091461     -109.041794      -30.444647
 H         -39.047585     -110.100670      -31.392307
