20
 generated by VMD
 C         -10.650095      -40.146957       -7.014094
 N         -11.405771      -40.244114       -6.217137
 H         -13.689049      -40.519314       -8.849752
 H         -15.197170      -39.931740       -9.563623
 C         -14.657840      -40.884506       -9.272579
 C         -15.416816      -41.552517       -8.094741
 C         -14.587739      -41.793198      -10.492073
 C         -16.817490      -42.170059       -8.602970
 C         -16.027956      -42.151459      -11.010558
 C         -16.765043      -42.918129       -9.928584
 H         -15.740894      -40.879074       -7.266631
 H         -14.814960      -42.344635       -7.587400
 H         -14.035021      -41.175362      -11.246841
 H         -14.038786      -42.694939      -10.250579
 H         -17.471592      -41.283768       -8.735688
 H         -17.293781      -42.765911       -7.835023
 H         -15.959008      -42.659504      -11.925217
 H         -16.540169      -41.136257      -11.194687
 H         -17.803375      -43.016788      -10.248196
 H         -16.262705      -43.864216       -9.751618
