20
 generated by VMD
 C         -50.108910     -130.392242      -46.015732
 N         -50.936604     -130.061035      -45.226498
 H         -47.888500     -132.217255      -44.505428
 H         -49.726032     -130.996216      -46.796665
 C         -48.001228     -132.085587      -43.451122
 C         -48.432838     -133.319290      -42.699516
 C         -48.277134     -130.792252      -42.756931
 C         -47.864643     -133.326447      -41.247074
 C         -47.742626     -130.829956      -41.403053
 C         -48.164585     -132.015915      -40.557270
 H         -48.064274     -134.190948      -43.404140
 H         -49.491985     -133.442001      -42.657681
 H         -47.794373     -129.962158      -43.343891
 H         -49.372532     -130.528259      -42.625118
 H         -46.807449     -133.482483      -41.447433
 H         -48.242119     -134.236816      -40.794376
 H         -47.977516     -129.924454      -40.763550
 H         -46.634541     -130.883179      -41.522263
 H         -47.608112     -131.931122      -39.642410
 H         -49.234917     -132.031982      -40.294605
