20
 generated by VMD
 C         -21.875591      -55.612698      -17.645084
 N         -20.857264      -55.631229      -18.111727
 H         -21.997198      -57.344620      -14.829011
 H         -22.802427      -55.384724      -17.008694
 C         -21.761404      -58.364620      -14.676325
 C         -21.501484      -58.822945      -13.348028
 C         -21.585993      -59.373688      -15.772677
 C         -20.988684      -60.313770      -13.274265
 C         -20.226149      -60.041348      -15.729187
 C         -20.008495      -60.730522      -14.301555
 H         -22.408613      -58.686451      -12.696535
 H         -20.737238      -58.170658      -12.877404
 H         -22.379988      -60.131145      -15.821095
 H         -21.616461      -58.697468      -16.606419
 H         -21.802519      -60.983143      -13.423552
 H         -20.656609      -60.536896      -12.269733
 H         -19.443548      -59.249836      -15.811800
 H         -20.222902      -60.828976      -16.487612
 H         -20.006451      -61.865707      -14.438296
 H         -18.961752      -60.513626      -13.881163
