20
 generated by VMD
 C         -30.968449      -77.790230      -25.447748
 N         -31.639757      -77.839996      -26.381390
 H         -29.291197      -78.258865      -23.105349
 H         -29.966667      -77.862564      -24.862774
 C         -28.944786      -79.280838      -23.319677
 C         -27.496536      -79.492462      -23.410259
 C         -29.691713      -80.458313      -22.734356
 C         -26.916960      -79.866982      -22.033270
 C         -29.093187      -80.864716      -21.385708
 C         -27.656578      -81.222603      -21.596725
 H         -27.265045      -78.470245      -23.590895
 H         -27.190628      -80.326897      -24.071672
 H         -30.702845      -80.148697      -22.690939
 H         -29.632126      -81.373329      -23.474394
 H         -27.079594      -79.040573      -21.366985
 H         -25.807955      -79.950630      -21.998596
 H         -29.823664      -81.649475      -21.075857
 H         -29.183727      -80.016533      -20.725237
 H         -27.271727      -81.561798      -20.623028
 H         -27.501532      -82.038940      -22.260616
