20
 generated by VMD
 C          -9.642219      -24.933315        0.599130
 N         -10.616140      -25.391621        0.335925
 H          -6.369071      -23.748301       -0.730220
 H          -8.024660      -23.356297       -1.238494
 C          -6.976161      -23.622311       -1.629026
 C          -7.173156      -24.929537       -2.407049
 C          -6.532897      -22.518610       -2.549829
 C          -8.105905      -24.681511       -3.606166
 C          -7.442063      -22.232645       -3.730879
 C          -7.630393      -23.527819       -4.475688
 H          -7.487542      -25.680788       -1.730955
 H          -6.189843      -25.353516       -2.850931
 H          -6.404843      -21.554071       -2.062852
 H          -5.590397      -22.824118       -2.988022
 H          -9.077333      -24.350286       -3.259691
 H          -8.253594      -25.541428       -4.195678
 H          -6.962081      -21.440365       -4.365657
 H          -8.369527      -21.813366       -3.309778
 H          -8.341408      -23.347143       -5.297412
 H          -6.668065      -23.862961       -4.813124
