20
 generated by VMD
 C         -79.700165     -206.886063      -75.403877
 N         -79.963570     -207.451614      -74.449661
 H         -76.766724     -208.119324      -73.409271
 H         -79.471016     -206.517792      -76.359756
 C         -76.817001     -208.250015      -72.267075
 C         -75.693748     -207.902328      -71.410545
 C         -77.854004     -209.175385      -71.667831
 C         -75.967644     -207.717438      -69.957245
 C         -78.189880     -208.997879      -70.197769
 C         -76.885239     -208.821701      -69.355698
 H         -75.148293     -206.985718      -71.671463
 H         -75.048981     -208.768494      -71.440926
 H         -78.814995     -209.196472      -72.215584
 H         -77.404884     -210.202255      -71.707069
 H         -76.486633     -206.781433      -69.712540
 H         -75.006172     -207.784195      -69.409546
 H         -78.554543     -210.007095      -69.874992
 H         -79.075844     -208.323547      -69.980690
 H         -77.343170     -208.409607      -68.421883
 H         -76.236893     -209.624847      -69.141052
