20
 generated by VMD
 C         -70.278114     -182.584763      -63.670227
 N         -69.546471     -182.914871      -64.480331
 H         -68.709869     -180.263245      -62.259274
 H         -70.989517     -182.245453      -62.930435
 C         -67.900764     -180.429794      -61.532101
 C         -67.700531     -181.903610      -61.187618
 C         -67.152000     -179.370514      -60.841850
 C         -66.176430     -182.138321      -61.030460
 C         -65.639999     -179.661072      -60.507801
 C         -65.413673     -181.197250      -60.110989
 H         -68.005913     -182.535873      -62.069042
 H         -68.126640     -182.179153      -60.239353
 H         -67.272324     -178.443558      -61.500065
 H         -67.637444     -179.076675      -59.827633
 H         -65.756088     -182.014313      -62.140873
 H         -65.927505     -183.283585      -60.814739
 H         -65.207207     -178.908371      -59.820545
 H         -64.986786     -179.500351      -61.365723
 H         -64.390938     -181.453339      -59.888439
 H         -65.937477     -181.452652      -59.205338
