20
 generated by VMD
 C          -1.982913      -14.132327        2.084744
 N          -1.653347      -15.188416        1.967142
 H          -3.801382      -16.552723        0.718703
 H          -4.402441      -17.163313       -0.809455
 C          -4.740682      -16.870195        0.204557
 C          -5.655515      -15.671538        0.054979
 C          -5.395211      -18.039978        0.861627
 C          -7.028217      -16.026089       -0.543830
 C          -6.677140      -18.443840        0.119375
 C          -7.704413      -17.233206        0.155913
 H          -5.211261      -14.916288       -0.550290
 H          -5.881678      -15.196243        1.061244
 H          -4.692899      -18.926971        0.848262
 H          -5.609788      -17.837883        1.978269
 H          -6.887546      -16.200384       -1.602664
 H          -7.684553      -15.155728       -0.360363
 H          -7.116528      -19.263952        0.647090
 H          -6.430079      -18.768940       -0.893134
 H          -8.528869      -17.569738       -0.514778
 H          -8.092187      -16.987324        1.156970
