20
 generated by VMD
 C         -60.028469     -152.692947      -51.000072
 N         -60.936604     -152.641556      -51.789635
 H         -56.808880     -152.780609      -48.833542
 H         -59.085644     -152.812073      -50.410038
 C         -56.066391     -152.399567      -49.541649
 C         -54.636501     -152.888153      -49.518612
 C         -56.310543     -151.016541      -49.906704
 C         -53.784653     -152.407837      -50.723511
 C         -55.469090     -150.565857      -51.116306
 C         -53.993382     -150.966919      -51.013660
 H         -54.599129     -154.027710      -49.418064
 H         -54.251598     -152.593719      -48.555397
 H         -57.378746     -151.190201      -50.218388
 H         -56.256271     -150.272400      -49.065964
 H         -53.949123     -153.045837      -51.626282
 H         -52.677677     -152.629333      -50.522449
 H         -55.607460     -149.552338      -51.066483
 H         -55.888435     -151.032410      -52.096146
 H         -53.432762     -150.571899      -51.812916
 H         -53.567104     -150.313950      -50.174030
