20
 generated by VMD
 C         -25.688824      -71.257835      -16.881130
 N         -26.143200      -72.165627      -16.283854
 H         -24.045681      -68.805489      -18.779348
 H         -25.212629      -70.486961      -17.468840
 C         -24.581755      -69.313522      -19.566059
 C         -23.967955      -70.397682      -20.417156
 C         -25.807228      -68.605164      -20.183821
 C         -25.091911      -71.180473      -21.259464
 C         -26.876102      -69.539932      -21.010010
 C         -25.998083      -70.320381      -22.109388
 H         -23.333111      -71.201241      -20.059010
 H         -23.297264      -70.000633      -21.143553
 H         -26.339756      -68.134911      -19.335157
 H         -25.400269      -67.834579      -20.752214
 H         -25.649317      -71.824547      -20.567593
 H         -24.422169      -71.833374      -21.932034
 H         -27.679264      -68.868759      -21.466457
 H         -27.354414      -70.388039      -20.498472
 H         -26.699743      -70.870934      -22.751617
 H         -25.429878      -69.685417      -22.809071
