20
 generated by VMD
 C         -70.788780     -181.680191      -64.141998
 N         -70.020393     -182.425934      -63.685421
 H         -68.504700     -181.055008      -61.469330
 H         -71.506447     -181.008652      -64.520210
 C         -67.541031     -180.669800      -60.996479
 C         -66.628395     -181.800583      -60.605247
 C         -67.381523     -179.392426      -60.468586
 C         -65.224373     -181.410004      -60.826180
 C         -65.888802     -178.975510      -60.840034
 C         -64.896072     -180.030853      -60.344929
 H         -67.085503     -182.617874      -61.184479
 H         -66.902016     -182.174637      -59.512253
 H         -68.095184     -178.714676      -60.872818
 H         -67.446579     -179.230591      -59.356544
 H         -65.013962     -181.551010      -61.870872
 H         -64.706268     -182.082397      -60.159122
 H         -65.647812     -178.056900      -60.309521
 H         -65.670776     -178.908142      -61.927898
 H         -63.955021     -179.702484      -60.685768
 H         -64.740532     -180.099396      -59.215458
