20
 generated by VMD
 C         -39.903862     -105.329765      -37.211903
 N         -39.955742     -104.177856      -36.977737
 H         -40.071964     -108.209503      -35.194374
 H         -39.929329     -106.392647      -37.154617
 C         -39.663998     -108.597107      -34.240105
 C         -38.480396     -108.190002      -33.532982
 C         -40.386463     -109.795441      -33.769566
 C         -38.789055     -107.899117      -32.055035
 C         -40.828724     -109.539749      -32.418888
 C         -39.579288     -109.108528      -31.441542
 H         -38.194679     -107.264191      -33.936451
 H         -37.685547     -108.873955      -33.654972
 H         -41.276958     -110.070412      -34.305798
 H         -39.712681     -110.678223      -33.813213
 H         -39.427372     -107.013306      -31.915607
 H         -37.819931     -107.786491      -31.537413
 H         -41.456455     -110.429131      -32.104996
 H         -41.577290     -108.733414      -32.393196
 H         -39.960800     -108.888687      -30.417320
 H         -38.954597     -109.908440      -31.308668
