20
 generated by VMD
 C         -31.045975      -74.825432      -22.126602
 N         -31.329346      -75.902191      -21.710629
 H         -28.675922      -76.646515      -21.357157
 H         -31.016272      -73.803490      -22.122906
 C         -27.646688      -76.440308      -21.254316
 C         -26.724808      -77.404465      -22.019964
 C         -27.142456      -75.232170      -20.595007
 C         -25.832293      -76.567528      -22.907631
 C         -26.091877      -74.489815      -21.630424
 C         -25.050219      -75.474548      -22.186115
 H         -27.213066      -78.106461      -22.549841
 H         -26.109198      -77.921333      -21.277353
 H         -28.011999      -74.549004      -20.430628
 H         -26.754471      -75.481964      -19.622738
 H         -26.395300      -76.261093      -23.765562
 H         -25.005672      -77.137016      -23.298450
 H         -25.635508      -73.705002      -21.054701
 H         -26.572395      -73.949196      -22.367807
 H         -24.565197      -74.924644      -22.966787
 H         -24.394175      -75.847672      -21.422880
