20
 generated by VMD
 C         -21.943686      -55.591885      -17.660835
 N         -20.846149      -55.658360      -18.120941
 H         -21.831308      -57.338673      -14.934834
 H         -22.643612      -55.412609      -16.746990
 C         -21.781269      -58.350502      -14.662583
 C         -21.459854      -58.847816      -13.279629
 C         -21.526758      -59.205933      -15.762940
 C         -21.034885      -60.299129      -13.297328
 C         -20.235331      -60.060989      -15.645585
 C         -19.934765      -60.667416      -14.348323
 H         -22.408403      -58.915562      -12.793817
 H         -20.773754      -58.162025      -12.760669
 H         -22.407547      -59.901051      -15.675811
 H         -21.676252      -58.830730      -16.784346
 H         -21.920967      -60.943935      -13.344125
 H         -20.548933      -60.447727      -12.310275
 H         -19.330751      -59.519341      -16.030766
 H         -20.270832      -60.859631      -16.420950
 H         -20.062763      -61.762867      -14.464475
 H         -18.850489      -60.519417      -13.991252
