20
 generated by VMD
 C         -28.060539      -82.410706      -26.948940
 N         -27.282631      -83.244888      -26.898571
 H         -31.429882      -84.082947      -26.596037
 H         -28.780985      -81.522850      -26.818926
 C         -31.750374      -84.822227      -25.841005
 C         -31.287741      -84.631477      -24.332909
 C         -32.146873      -86.246758      -26.248495
 C         -32.132317      -85.401222      -23.361334
 C         -33.156101      -86.811943      -25.240034
 C         -32.631218      -86.777496      -23.824032
 H         -31.414646      -83.534950      -24.037722
 H         -30.173149      -84.878952      -24.264339
 H         -32.682083      -86.141685      -27.234015
 H         -31.401619      -86.986794      -26.408524
 H         -32.915195      -84.794075      -23.028757
 H         -31.593784      -85.569847      -22.372007
 H         -33.489193      -87.901306      -25.423422
 H         -34.026039      -86.186615      -25.252716
 H         -33.360950      -86.967636      -23.040281
 H         -31.783407      -87.482666      -23.722921
