20
 generated by VMD
 C         -78.604561     -209.647171      -77.360374
 N         -79.060295     -209.193970      -76.397820
 H         -78.299683     -210.192917      -73.439018
 H         -78.200806     -210.147522      -78.208252
 C         -78.458336     -211.011993      -72.814774
 C         -77.390045     -211.323914      -71.788803
 C         -79.548576     -211.935120      -72.986137
 C         -78.007797     -211.947952      -70.527145
 C         -80.209930     -212.351013      -71.657928
 C         -79.193893     -212.876419      -70.676826
 H         -76.972557     -210.287216      -71.522614
 H         -76.481133     -211.901031      -72.059189
 H         -80.314781     -211.437897      -73.486633
 H         -79.304031     -212.765121      -73.642090
 H         -78.166656     -211.033737      -69.909737
 H         -77.287216     -212.511688      -69.902306
 H         -80.806068     -213.220917      -71.848724
 H         -80.730240     -211.461060      -71.159698
 H         -79.697723     -213.101242      -69.709122
 H         -78.678314     -213.733795      -71.109154
