20
 generated by VMD
 C         -20.016766      -56.177059      -16.805172
 N         -21.086491      -56.403442      -16.395391
 H         -21.845711      -59.565060      -17.297718
 H         -19.064522      -55.922512      -16.988880
 C         -22.344519      -60.132721      -16.528446
 C         -22.774815      -59.618969      -15.243147
 C         -21.907257      -61.521015      -16.625334
 C         -21.512316      -59.687347      -14.339364
 C         -20.954824      -61.869240      -15.584841
 C         -21.111301      -61.144657      -14.187706
 H         -23.638613      -60.089607      -14.826080
 H         -23.062685      -58.626400      -15.357047
 H         -22.818846      -62.181900      -16.425055
 H         -21.599438      -61.863594      -17.642042
 H         -21.817511      -59.336536      -13.287059
 H         -20.719742      -59.039421      -14.828950
 H         -19.980198      -61.597984      -15.883618
 H         -20.916298      -62.904686      -15.322442
 H         -21.873779      -61.677933      -13.562759
 H         -20.173784      -61.292057      -13.649349
