20
 generated by VMD
 C         -72.353378     -199.279129      -65.084061
 N         -71.216988     -199.273666      -64.904266
 H         -71.558945     -196.330307      -66.790611
 H         -73.409554     -199.400131      -65.342041
 C         -72.401642     -195.910049      -67.326065
 C         -72.822754     -194.395889      -67.021393
 C         -72.859085     -196.454819      -68.680573
 C         -73.921394     -193.984528      -67.966843
 C         -74.291466     -196.190338      -69.034332
 C         -74.980049     -195.008331      -68.324600
 H         -71.881310     -193.816071      -66.927887
 H         -73.293434     -194.322815      -66.069489
 H         -72.217583     -196.081223      -69.501938
 H         -72.825989     -197.565948      -68.651985
 H         -73.395866     -193.766861      -68.961449
 H         -74.295471     -192.942078      -67.803619
 H         -74.976074     -197.035110      -68.859871
 H         -74.316719     -195.982193      -70.107903
 H         -75.830643     -194.622513      -68.844017
 H         -75.520370     -195.228424      -67.376068
