20
 generated by VMD
 C         -59.783215     -171.898697      -55.214302
 N         -59.626186     -172.950760      -54.825352
 H         -63.212502     -170.217346      -56.136410
 H         -59.914864     -170.953171      -55.660858
 C         -63.548717     -169.373932      -56.713161
 C         -62.638401     -168.280777      -57.433823
 C         -65.077332     -169.420258      -57.088036
 C         -63.149193     -167.911179      -58.842690
 C         -65.407486     -168.942184      -58.479084
 C         -64.703613     -167.648392      -58.900894
 H         -61.601585     -168.761017      -57.413471
 H         -62.635719     -167.351181      -56.807053
 H         -65.236351     -170.481293      -56.939617
 H         -65.480804     -168.787643      -56.362877
 H         -62.767231     -168.725449      -59.580353
 H         -62.632366     -166.958420      -59.204758
 H         -66.478981     -168.774017      -58.458500
 H         -65.123703     -169.784775      -59.125145
 H         -64.832634     -167.251801      -59.939873
 H         -64.939392     -166.929764      -58.135468
