20
 generated by VMD
 C         -61.209076     -154.858658      -53.703392
 N         -61.580452     -154.857391      -52.553299
 H         -57.765526     -155.301285      -52.267929
 H         -60.995895     -154.844467      -54.790310
 C         -57.150295     -154.544540      -51.807430
 C         -57.398769     -154.166351      -50.395306
 C         -55.890594     -154.073013      -52.427330
 C         -56.178707     -154.571640      -49.621067
 C         -54.616898     -154.506516      -51.629589
 C         -54.801224     -154.094269      -50.160629
 H         -58.410053     -154.540695      -50.212326
 H         -57.614796     -153.161636      -50.084450
 H         -55.775829     -154.474426      -53.477356
 H         -55.814846     -153.012344      -52.474148
 H         -56.153038     -155.614777      -49.621181
 H         -56.455147     -154.327377      -48.636139
 H         -53.653282     -154.117203      -52.101540
 H         -54.615181     -155.548813      -51.630066
 H         -53.998531     -154.607346      -49.502975
 H         -54.578434     -153.014725      -49.955246
