20
 generated by VMD
 C         -30.179367      -92.742645      -25.743341
 N         -31.300503      -92.915390      -25.668070
 H         -32.861511      -90.929359      -26.246775
 H         -29.131340      -92.497513      -25.913815
 C         -33.490307      -90.948280      -27.142052
 C         -34.383209      -92.138573      -27.388847
 C         -33.176811      -90.305145      -28.450359
 C         -35.656361      -91.686729      -28.224281
 C         -34.314518      -89.902679      -29.380733
 C         -35.328033      -91.082191      -29.609585
 H         -34.750187      -92.508865      -26.487879
 H         -34.092140      -93.010620      -27.976257
 H         -32.721920      -89.389175      -28.139372
 H         -32.492245      -91.030464      -28.975250
 H         -36.291256      -90.939781      -27.627964
 H         -36.218155      -92.608482      -28.321920
 H         -33.890675      -89.719063      -30.424793
 H         -34.805717      -88.966225      -28.989246
 H         -36.149776      -90.512497      -29.984510
 H         -35.087532      -91.880173      -30.300589
