20
 generated by VMD
 C         -30.343292      -92.827293      -25.866764
 N         -29.748724      -92.464317      -24.947088
 H         -32.486267      -89.711517      -26.603054
 H         -30.961447      -93.219460      -26.568392
 C         -33.388123      -89.897530      -27.198418
 C         -34.038410      -91.277115      -27.058775
 C         -33.373611      -89.255150      -28.635960
 C         -35.369068      -91.475365      -27.883278
 C         -34.757664      -89.473061      -29.247265
 C         -35.243797      -90.961380      -29.225702
 H         -34.326843      -91.533493      -26.001820
 H         -33.383575      -92.080063      -27.592049
 H         -33.258377      -88.151794      -28.546133
 H         -32.520447      -89.707558      -29.243296
 H         -36.145603      -90.990936      -27.217634
 H         -35.593563      -92.529510      -27.998781
 H         -34.609959      -89.047600      -30.243088
 H         -35.443741      -88.815323      -28.670149
 H         -36.178799      -91.130730      -29.809786
 H         -34.415363      -91.404594      -29.832561
