20
 generated by VMD
 C         -51.059570     -145.198456      -44.444214
 N         -51.075420     -146.335022      -44.581360
 H         -53.129372     -144.357376      -46.432125
 H         -51.030048     -144.169373      -44.228123
 C         -53.540226     -143.887344      -47.307350
 C         -52.699043     -143.775726      -48.475990
 C         -54.747471     -142.991806      -47.218182
 C         -53.417522     -143.747086      -49.742714
 C         -55.447880     -142.769424      -48.510677
 C         -54.458996     -142.593521      -49.742840
 H         -52.047588     -144.768768      -48.437012
 H         -51.995449     -142.929199      -48.276291
 H         -55.422813     -143.242722      -46.427109
 H         -54.414471     -142.019562      -46.763477
 H         -53.918331     -144.678329      -50.153950
 H         -52.650066     -143.494553      -50.572063
 H         -56.195984     -141.954208      -48.569756
 H         -55.914650     -143.783340      -48.574131
 H         -55.052898     -142.612396      -50.751331
 H         -53.953728     -141.507126      -49.587257
