20
 generated by VMD
 C         -15.520668      -47.635860       -6.301714
 N         -15.653468      -46.606655       -5.876389
 H         -16.533167      -47.407360       -9.929471
 H         -15.238762      -47.144558      -11.069273
 C         -16.264585      -46.930603      -10.873218
 C         -16.485758      -45.358494      -10.827745
 C         -17.100958      -47.381382      -12.027575
 C         -16.130184      -44.564999      -12.127003
 C         -16.946863      -46.628304      -13.350907
 C         -17.042965      -45.117813      -13.200089
 H         -15.804075      -44.895287      -10.084798
 H         -17.572210      -45.204456      -10.557481
 H         -16.961050      -48.485897      -12.258029
 H         -18.169830      -47.246147      -11.781621
 H         -15.058503      -44.736809      -12.308896
 H         -16.321529      -43.473572      -12.040881
 H         -17.617743      -47.139141      -14.088499
 H         -16.031288      -46.894478      -13.775457
 H         -16.898355      -44.605911      -14.173989
 H         -18.059490      -44.805470      -13.020048
