20
 generated by VMD
 C         -11.678150      -25.897718       -0.886155
 N         -11.665018      -25.088631       -0.118157
 H          -7.927556      -26.242964       -1.287155
 H          -9.157398      -25.581232       -2.428242
 C          -8.064351      -25.688780       -2.184260
 C          -7.388160      -26.480722       -3.299989
 C          -7.460681      -24.337021       -2.109087
 C          -7.375960      -25.857805       -4.686914
 C          -7.437987      -23.618460       -3.385298
 C          -6.909835      -24.408070       -4.564771
 H          -7.708855      -27.483669       -3.321212
 H          -6.349089      -26.762348       -2.982202
 H          -8.018113      -23.670727       -1.373201
 H          -6.482200      -24.384306       -1.673170
 H          -8.404066      -25.966188       -5.082522
 H          -6.833019      -26.404076       -5.457488
 H          -6.878872      -22.682178       -3.295701
 H          -8.491684      -23.366907       -3.614578
 H          -7.120749      -23.818495       -5.486982
 H          -5.830233      -24.509123       -4.511325
