20
 generated by VMD
 C         -30.318998      -94.149025      -25.639029
 N         -29.764786      -93.584839      -24.804085
 H         -33.820412      -92.718689      -26.868578
 H         -30.878597      -94.643112      -26.323238
 C         -34.291718      -92.228226      -27.726599
 C         -35.871193      -92.277130      -27.916777
 C         -33.428520      -91.637375      -28.794987
 C         -36.423000      -91.304672      -28.973896
 C         -34.132504      -90.516037      -29.562902
 C         -35.448933      -91.176743      -30.073885
 H         -36.451317      -92.260788      -27.079855
 H         -36.034634      -93.269684      -28.304380
 H         -32.468632      -91.322403      -28.361977
 H         -33.251724      -92.348633      -29.577341
 H         -36.589184      -90.293098      -28.469318
 H         -37.411037      -91.668541      -29.319660
 H         -33.395824      -90.240273      -30.279539
 H         -34.305786      -89.616257      -28.904863
 H         -35.987553      -90.502281      -30.750618
 H         -35.225723      -92.059479      -30.713930
