20
 generated by VMD
 C         -49.532413     -141.595062      -45.849377
 N         -49.344009     -142.014282      -44.738041
 H         -51.219616     -138.869598      -46.251053
 H         -49.590149     -141.020813      -46.752419
 C         -52.245403     -139.297226      -46.417480
 C         -52.919415     -139.474258      -47.782700
 C         -52.938847     -140.018951      -45.293613
 C         -53.092785     -140.938614      -48.158619
 C         -53.117176     -141.551224      -45.631950
 C         -53.905811     -141.712662      -46.974304
 H         -52.247440     -138.996811      -48.550812
 H         -53.813984     -138.845047      -47.685791
 H         -52.382191     -139.964890      -44.389614
 H         -53.907120     -139.654327      -45.178909
 H         -52.109993     -141.186829      -48.556347
 H         -53.799721     -141.003983      -49.044025
 H         -53.660820     -141.965866      -44.774059
 H         -52.250126     -142.045074      -45.907917
 H         -54.103184     -142.837601      -47.304874
 H         -54.909576     -141.123947      -46.958858
