20
 generated by VMD
 C         -43.153988     -120.877243      -35.450741
 N         -42.744316     -120.856659      -34.378273
 H         -44.198879     -121.497162      -38.788548
 H         -43.764896     -120.734924      -36.402756
 C         -44.078617     -120.444908      -38.668659
 C         -43.196293     -119.679398      -39.553131
 C         -45.182602     -119.479179      -38.216217
 C         -43.812675     -118.955963      -40.742008
 C         -45.928417     -118.771782      -39.386917
 C         -44.938255     -117.995178      -40.213215
 H         -42.429951     -120.352173      -40.046188
 H         -42.613853     -118.960884      -38.941471
 H         -45.877285     -120.151932      -37.591614
 H         -44.703911     -118.710716      -37.577442
 H         -44.082397     -119.798012      -41.305111
 H         -43.063667     -118.324287      -41.213684
 H         -46.594891     -117.963249      -38.878056
 H         -46.502705     -119.491264      -39.952560
 H         -45.570736     -117.652718      -41.078167
 H         -44.403427     -117.150558      -39.725731
