20
 generated by VMD
 C         -59.878120     -152.107925      -49.924076
 N         -58.765728     -152.526352      -50.162853
 H         -56.642841     -150.888031      -48.582031
 H         -60.870144     -151.649902      -49.859104
 C         -55.677917     -150.582443      -49.008057
 C         -54.844395     -151.667511      -49.750832
 C         -55.365612     -149.138214      -49.148621
 C         -54.274712     -151.255737      -51.124943
 C         -54.861698     -148.826981      -50.567005
 C         -53.741089     -149.809265      -51.091290
 H         -55.298634     -152.642181      -49.847401
 H         -53.951214     -151.693665      -49.038586
 H         -56.309254     -148.517883      -48.980629
 H         -54.640057     -148.931442      -48.351826
 H         -55.191742     -151.333069      -51.719234
 H         -53.540501     -151.941025      -51.565063
 H         -54.522400     -147.664810      -50.645187
 H         -55.711689     -148.840805      -51.236149
 H         -53.535233     -149.552032      -52.158390
 H         -52.872536     -149.793243      -50.559441
