20
 generated by VMD
 C         -78.613739     -210.294785      -76.340668
 N         -77.551865     -210.560608      -76.627464
 H         -79.828911     -212.026337      -74.756157
 H         -79.666138     -210.051819      -76.044426
 C         -79.634109     -212.417038      -73.725090
 C         -78.291237     -212.588211      -73.145782
 C         -80.886253     -213.175156      -73.177193
 C         -78.386322     -212.713684      -71.505554
 C         -80.929024     -213.618271      -71.735603
 C         -79.444901     -213.837631      -71.296005
 H         -77.654068     -211.714035      -73.335846
 H         -77.899750     -213.477539      -73.591972
 H         -81.853813     -212.682846      -73.479492
 H         -80.930763     -214.034256      -73.823631
 H         -78.774490     -211.797150      -71.012405
 H         -77.334595     -213.018082      -71.248756
 H         -81.499084     -214.566422      -71.514511
 H         -81.317497     -212.855209      -70.953041
 H         -79.432610     -214.055710      -70.238113
 H         -79.059868     -214.808624      -71.879547
