20
 generated by VMD
 C          -5.818539      -21.161604        1.561782
 N          -5.688158      -21.448723        2.631177
 H          -5.045156      -18.439409       -1.262830
 H          -5.486382      -19.771923       -0.161153
 C          -5.736317      -19.273504       -1.193032
 C          -5.581773      -20.205730       -2.367313
 C          -7.116336      -18.681547       -1.058152
 C          -6.576394      -21.291750       -2.483561
 C          -8.194247      -19.801601       -1.178121
 C          -8.001204      -20.715818       -2.404777
 H          -4.571421      -20.634501       -2.315444
 H          -5.587942      -19.529791       -3.268066
 H          -7.255455      -18.192959       -0.095785
 H          -7.307097      -18.115929       -1.909493
 H          -6.477008      -22.058300       -1.684736
 H          -6.485391      -21.854864       -3.470580
 H          -9.207202      -19.308857       -1.207837
 H          -8.120861      -20.424557       -0.288409
 H          -8.691332      -21.571260       -2.339336
 H          -8.250431      -20.164879       -3.333118
