20
 generated by VMD
 C         -67.673180     -191.697891      -66.566368
 N         -66.691353     -191.807892      -67.189972
 H         -70.462936     -189.379074      -66.191620
 H         -68.701126     -191.828125      -66.091331
 C         -71.167564     -189.835968      -65.552452
 C         -71.978012     -191.092422      -65.847260
 C         -71.115990     -189.323639      -64.110252
 C         -73.241585     -191.185089      -65.015686
 C         -72.521393     -189.196121      -63.671543
 C         -73.117828     -190.660004      -63.599960
 H         -71.289062     -191.907181      -65.458221
 H         -72.260132     -191.191589      -66.966064
 H         -70.566750     -189.993835      -63.462078
 H         -70.645142     -188.315277      -64.084030
 H         -73.722366     -192.127502      -64.960876
 H         -74.026672     -190.600342      -65.495674
 H         -73.076340     -188.589478      -64.339165
 H         -72.743996     -188.748688      -62.756165
 H         -72.466232     -191.269684      -62.978069
 H         -74.150085     -190.829056      -63.198933
