20
 generated by VMD
 C         -62.910549     -173.554077      -55.582134
 N         -63.430981     -174.177567      -54.734322
 H         -61.549107     -171.694092      -58.728447
 H         -62.418190     -172.872849      -56.266861
 C         -62.484371     -171.135590      -58.777794
 C         -62.734196     -170.011917      -57.762012
 C         -63.779099     -171.789978      -59.081791
 C         -63.716385     -168.930389      -58.309639
 C         -64.886871     -170.779205      -59.647526
 C         -65.119743     -169.482407      -58.737507
 H         -61.821571     -169.603378      -57.474556
 H         -63.288555     -170.534836      -56.806316
 H         -63.581524     -172.483948      -59.967911
 H         -64.289032     -172.189728      -58.235378
 H         -63.211384     -168.624802      -59.317219
 H         -63.851696     -168.012833      -57.660873
 H         -65.820137     -171.288452      -59.862640
 H         -64.465210     -170.385376      -60.598507
 H         -65.667824     -168.721878      -59.318462
 H         -65.671745     -169.679337      -57.870975
