20
 generated by VMD
 C         -39.529625     -105.546661      -37.265205
 N         -40.413734     -104.823219      -36.989319
 H         -38.938801     -108.831856      -35.427612
 H         -38.805584     -106.217957      -37.648815
 C         -39.445732     -108.670395      -34.436768
 C         -38.375183     -108.320648      -33.331043
 C         -40.694653     -109.442444      -34.029377
 C         -39.025040     -108.367943      -31.986099
 C         -40.996517     -109.484665      -32.521500
 C         -39.746220     -109.545097      -31.648359
 H         -37.881348     -107.362274      -33.596466
 H         -37.584114     -109.073265      -33.436302
 H         -41.557579     -109.021645      -34.708466
 H         -40.631081     -110.538689      -34.215294
 H         -39.665131     -107.440033      -31.753960
 H         -38.256638     -108.400574      -31.166426
 H         -41.591156     -110.357292      -32.307053
 H         -41.542828     -108.530716      -32.411079
 H         -40.102715     -109.649811      -30.625303
 H         -39.147366     -110.501656      -31.897820
