20
 generated by VMD
 C         -18.112555      -49.570171       -8.648930
 N         -19.175686      -49.888386       -8.732097
 H         -16.503752      -47.258759       -9.969115
 H         -17.365314      -48.689495      -10.481864
 C         -16.776558      -47.851368      -10.843777
 C         -15.501616      -48.376305      -11.594182
 C         -17.667831      -47.002293      -11.721978
 C         -15.773205      -48.827408      -13.047276
 C         -18.052038      -47.888889      -12.903806
 C         -16.849909      -47.956772      -13.818272
 H         -15.123456      -49.331066      -11.121097
 H         -14.795623      -47.550930      -11.597513
 H         -18.582207      -46.737335      -11.153589
 H         -17.186872      -46.084229      -12.154968
 H         -16.210953      -49.848152      -13.014244
 H         -14.809070      -48.821705      -13.536554
 H         -18.952135      -47.422077      -13.475377
 H         -18.341249      -48.887028      -12.636404
 H         -17.068087      -48.327709      -14.775464
 H         -16.447721      -46.994907      -13.988621
