20
 generated by VMD
 C         -78.701622     -209.093567      -77.102905
 N         -79.662094     -208.577942      -76.679726
 H         -78.394615     -209.127228      -73.135185
 H         -77.810059     -209.452347      -77.481575
 C         -78.274529     -209.827332      -72.330147
 C         -76.861412     -209.759583      -71.457443
 C         -79.168457     -211.049072      -72.393135
 C         -77.211540     -210.537201      -70.126717
 C         -79.476578     -211.465607      -70.910034
 C         -78.125587     -211.786377      -70.148811
 H         -76.549049     -208.719498      -71.190483
 H         -76.061752     -210.251465      -71.994308
 H         -80.140892     -210.993469      -72.939232
 H         -78.535538     -211.790253      -73.004074
 H         -77.522491     -209.835587      -69.367928
 H         -76.259735     -210.876404      -69.722160
 H         -80.032982     -212.348389      -70.940628
 H         -79.996880     -210.818375      -70.154953
 H         -78.376694     -212.141174      -69.123734
 H         -77.483498     -212.546524      -70.664017
