20
 generated by VMD
 C         -12.094337      -37.518547       -7.602396
 N         -11.003334      -37.789589       -7.564263
 H         -12.502018      -41.232754       -8.437445
 H         -13.578502      -40.398582       -7.301928
 C         -13.562290      -40.976768       -8.243710
 C         -14.319934      -42.246189       -8.198079
 C         -14.080376      -40.081753       -9.352510
 C         -15.740503      -41.872849       -7.816945
 C         -15.564455      -39.807938       -9.155575
 C         -16.372946      -41.046589       -8.953430
 H         -13.900813      -43.010777       -7.509621
 H         -14.339323      -42.855381       -9.098193
 H         -13.520643      -39.106125       -9.498921
 H         -13.923050      -40.534435      -10.340043
 H         -15.760990      -41.360550       -6.823098
 H         -16.370996      -42.733803       -7.574887
 H         -15.964398      -39.261086      -10.050879
 H         -15.573870      -39.111748       -8.334314
 H         -17.394491      -40.793636       -8.557387
 H         -16.508694      -41.656322       -9.853486
