20
 generated by VMD
 C         -58.041191     -161.877365      -56.239151
 N         -57.148335     -162.035324      -56.985390
 H         -59.540276     -164.701721      -55.302937
 H         -58.870747     -161.814850      -55.547260
 C         -60.446728     -164.390762      -54.896236
 C         -60.496628     -163.996902      -53.399132
 C         -61.775784     -164.571579      -55.617443
 C         -61.582340     -163.052750      -53.075428
 C         -62.730045     -163.442780      -55.264698
 C         -62.971706     -163.430130      -53.756195
 H         -59.492561     -163.570877      -53.210949
 H         -60.453053     -165.015518      -52.765541
 H         -61.541901     -164.759918      -56.685562
 H         -62.262218     -165.486023      -55.383343
 H         -61.327465     -161.946396      -53.253849
 H         -61.739471     -163.213730      -51.949326
 H         -63.691647     -163.374023      -55.817341
 H         -62.281345     -162.464935      -55.654747
 H         -63.738613     -162.636673      -53.388187
 H         -63.165913     -164.479187      -53.408070
