20
 generated by VMD
 C         -28.392073      -74.042503      -18.377596
 N         -29.193905      -73.352745      -17.829189
 H         -25.070049      -71.918793      -18.782154
 H         -27.913660      -74.545509      -19.100151
 C         -25.346308      -71.922157      -19.788982
 C         -24.742861      -73.145782      -20.613993
 C         -25.719740      -70.671616      -20.607347
 C         -25.248322      -73.254021      -22.105562
 C         -26.382877      -70.971626      -21.842447
 C         -25.446278      -71.783295      -22.758219
 H         -24.895813      -74.078598      -20.056541
 H         -23.570768      -72.989586      -20.575253
 H         -26.360317      -69.961922      -20.003668
 H         -24.792173      -70.189453      -20.742588
 H         -26.328457      -73.631607      -22.096222
 H         -24.738741      -73.951889      -22.822844
 H         -26.751944      -70.034538      -22.327353
 H         -27.232899      -71.748810      -21.779251
 H         -25.848867      -71.872711      -23.714317
 H         -24.547253      -71.219437      -22.904552
