20
 generated by VMD
 C         -30.555832      -75.783554      -22.536495
 N         -31.289686      -74.865479      -22.482246
 H         -28.783043      -78.223061      -21.521078
 H         -30.053936      -76.664497      -22.402765
 C         -27.959286      -77.532974      -21.680006
 C         -26.774446      -78.046471      -22.507708
 C         -27.681252      -76.407379      -20.656452
 C         -25.876947      -76.980125      -23.047762
 C         -26.842108      -75.306778      -21.272419
 C         -25.598618      -75.824768      -22.005476
 H         -27.156708      -78.626328      -23.392555
 H         -26.318050      -78.773376      -21.779528
 H         -28.537315      -75.912262      -20.247274
 H         -27.060362      -76.813248      -19.757332
 H         -26.454973      -76.383202      -23.763237
 H         -25.004040      -77.420868      -23.503674
 H         -26.664583      -74.450287      -20.642578
 H         -27.357210      -74.827408      -22.092499
 H         -25.020405      -75.075615      -22.580292
 H         -24.807631      -76.079239      -21.279041
