20
 generated by VMD
 C          -6.887666      -23.311501        2.801064
 N          -6.961333      -22.564110        1.982473
 H          -8.216718      -23.014053       -0.683298
 H          -9.068512      -22.399063       -2.141167
 C          -8.103219      -22.378632       -1.638969
 C          -7.174338      -23.125000       -2.586244
 C          -7.556624      -20.967276       -1.422695
 C          -7.020500      -22.264114       -3.884943
 C          -7.399114      -20.180071       -2.688197
 C          -6.588091      -20.867092       -3.680089
 H          -7.662208      -24.061342       -2.828618
 H          -6.132692      -23.174789       -2.211332
 H          -8.135685      -20.364845       -0.672724
 H          -6.634073      -21.068678       -0.849139
 H          -7.934925      -22.289713       -4.518179
 H          -6.292959      -22.835514       -4.501852
 H          -7.037823      -19.154472       -2.465575
 H          -8.402859      -19.919855       -3.058745
 H          -6.675555      -20.361824       -4.634721
 H          -5.529700      -20.819136       -3.383928
