20
 generated by VMD
 C         -59.917461     -156.878235      -56.459255
 N         -60.957470     -156.442307      -56.443916
 H         -59.867821     -157.457626      -53.118977
 H         -58.930367     -157.274307      -56.268761
 C         -58.930729     -157.893814      -52.778305
 C         -57.715221     -157.120331      -52.379665
 C         -58.897655     -159.297470      -52.421844
 C         -57.369564     -157.423264      -50.882427
 C         -58.376221     -159.689301      -51.085648
 C         -57.177078     -158.899139      -50.624062
 H         -58.091488     -156.064392      -52.516842
 H         -56.845634     -157.267090      -52.989441
 H         -59.867626     -159.615082      -52.694328
 H         -58.254169     -159.871582      -53.042568
 H         -58.005268     -157.044754      -50.188290
 H         -56.433105     -156.968201      -50.624271
 H         -58.201889     -160.804520      -51.001255
 H         -59.137432     -159.479584      -50.240669
 H         -56.921459     -159.069397      -49.632210
 H         -56.355515     -159.165497      -51.331200
