20
 generated by VMD
 C         -69.079674     -180.502502      -60.889240
 N         -69.689377     -181.323563      -60.374199
 H         -67.297768     -177.852478      -59.577999
 H         -68.563072     -179.605042      -61.271927
 C         -66.329735     -177.646103      -59.909943
 C         -65.852745     -177.687592      -61.314243
 C         -65.363724     -177.153458      -58.838150
 C         -65.002907     -176.470963      -61.636055
 C         -64.345322     -176.044937      -59.223473
 C         -63.926071     -176.214783      -60.650833
 H         -66.766373     -177.582275      -61.893238
 H         -65.388603     -178.647614      -61.501972
 H         -65.889992     -176.801773      -57.935478
 H         -64.766983     -178.003510      -58.455486
 H         -65.456642     -175.488708      -61.843372
 H         -64.363586     -176.645828      -62.584827
 H         -63.412712     -176.074951      -58.675579
 H         -64.610664     -175.014221      -59.027451
 H         -63.305271     -175.292557      -60.823666
 H         -63.214710     -177.069427      -60.755688
