20
 generated by VMD
 C         -76.725983     -203.226028      -66.703362
 N         -77.468163     -203.776764      -65.964729
 H         -75.173584     -200.682785      -68.195160
 H         -75.926476     -202.721832      -67.147438
 C         -74.748405     -199.989456      -68.896568
 C         -74.867958     -198.477768      -68.800262
 C         -73.663719     -200.413239      -69.764488
 C         -73.421127     -197.821304      -68.819122
 C         -73.177330     -199.463364      -70.848572
 C         -72.820557     -198.101562      -70.188690
 H         -75.416885     -198.225616      -67.778366
 H         -75.492363     -198.062317      -69.601631
 H         -72.773682     -200.715302      -69.162270
 H         -74.034424     -201.292389      -70.324333
 H         -72.820877     -198.341400      -68.102356
 H         -73.466568     -196.714523      -68.636963
 H         -73.936783     -199.318283      -71.640251
 H         -72.442543     -199.953690      -71.554832
 H         -71.669922     -198.010742      -70.098488
 H         -73.151489     -197.279907      -70.713844
