20
 generated by VMD
 C         -20.530334      -52.254444       -9.687726
 N         -21.187305      -51.823036      -10.516005
 H         -18.507868      -49.504646      -10.826470
 H         -19.893663      -52.971172       -8.775717
 C         -17.860413      -49.656757      -11.696208
 C         -17.402874      -51.030281      -12.093630
 C         -17.220751      -48.416454      -12.237172
 C         -16.775223      -51.058975      -13.504339
 C         -16.851976      -48.588371      -13.726566
 C         -16.009329      -49.826065      -13.958320
 H         -18.364372      -51.647930      -12.125318
 H         -16.713379      -51.456135      -11.361082
 H         -17.843639      -47.517307      -12.074446
 H         -16.280920      -48.227943      -11.610905
 H         -17.631067      -51.184994      -14.170678
 H         -16.136766      -51.967186      -13.549694
 H         -16.362665      -47.748501      -14.145996
 H         -17.927164      -48.740608      -14.185669
 H         -15.672614      -49.946442      -14.959689
 H         -15.105781      -49.770298      -13.396834
