20
 generated by VMD
 C         -49.610249     -131.847397      -46.396667
 N         -50.242298     -132.360947      -47.280590
 H         -47.661858     -133.684006      -44.336758
 H         -48.763515     -131.349152      -45.906124
 C         -48.346062     -134.111374      -43.633373
 C         -49.153690     -135.348206      -43.982918
 C         -49.155876     -133.087097      -42.897327
 C         -49.693405     -135.954361      -42.670326
 C         -49.655716     -133.690002      -41.588081
 C         -50.463253     -134.857834      -41.860962
 H         -48.583462     -136.023956      -44.542816
 H         -50.062847     -135.140442      -44.602562
 H         -48.465744     -132.269699      -42.767258
 H         -49.965931     -132.662994      -43.514973
 H         -48.872025     -136.297531      -41.987289
 H         -50.398933     -136.777969      -42.980778
 H         -50.375538     -132.905045      -41.101688
 H         -48.773209     -133.847214      -40.919346
 H         -50.841991     -135.318665      -40.833565
 H         -51.481232     -134.535660      -42.261597
