20
 generated by VMD
 C         -46.233074     -124.191727      -35.838230
 N         -46.763512     -125.166931      -35.512714
 H         -44.554920     -122.216248      -38.284161
 H         -45.571381     -123.305702      -35.900608
 C         -44.620419     -121.608398      -39.129791
 C         -43.306629     -121.384796      -39.771923
 C         -45.649952     -120.677963      -39.543900
 C         -43.500580     -121.686386      -41.235287
 C         -45.907486     -120.943764      -41.046707
 C         -44.579948     -120.706688      -41.819538
 H         -42.576950     -121.993126      -39.235466
 H         -42.904606     -120.426376      -39.615887
 H         -46.491760     -120.967682      -38.998566
 H         -45.368462     -119.585693      -39.385338
 H         -43.611759     -122.705154      -41.562786
 H         -42.528564     -121.501991      -41.829750
 H         -46.668293     -120.191833      -41.393696
 H         -46.344410     -121.904518      -41.001076
 H         -44.778580     -121.069458      -42.847466
 H         -44.325123     -119.701668      -41.817226
