20
 generated by VMD
 C          -1.275673       -9.706490        1.180654
 N          -1.851070       -9.814591        0.216875
 H          -3.082225      -12.178921        1.270661
 H          -3.781976      -11.930920        2.861688
 C          -3.706049      -12.679099        2.069899
 C          -3.018578      -13.964655        2.478539
 C          -5.051394      -12.990106        1.380868
 C          -3.998829      -14.910868        3.297385
 C          -5.951363      -13.810066        2.223445
 C          -5.310861      -15.100296        2.527619
 H          -2.130567      -13.738632        3.058849
 H          -2.726432      -14.524321        1.532349
 H          -5.597694      -12.076033        1.218722
 H          -4.886862      -13.508404        0.469744
 H          -4.110949      -14.474144        4.237944
 H          -3.416499      -15.775249        3.445575
 H          -6.912704      -14.002073        1.700686
 H          -6.194539      -13.241630        3.166328
 H          -6.000879      -15.815311        2.974776
 H          -5.056078      -15.574856        1.543091
