20
 generated by VMD
 C         -49.456898     -133.017899      -47.116886
 N         -49.674667     -131.881027      -47.011791
 H         -47.761055     -134.221603      -44.213409
 H         -49.575233     -134.055969      -47.406044
 C         -48.643784     -134.584747      -43.721420
 C         -49.149647     -136.020386      -43.946789
 C         -49.537575     -133.645203      -43.104115
 C         -49.974934     -136.515366      -42.789631
 C         -50.387791     -134.227966      -41.926807
 C         -51.053844     -135.544250      -42.297375
 H         -48.331757     -136.715057      -44.183910
 H         -49.842319     -135.931000      -44.828518
 H         -48.873077     -132.908493      -42.600197
 H         -50.195953     -133.028320      -43.844334
 H         -49.381508     -136.727310      -41.927357
 H         -50.583092     -137.327789      -42.933868
 H         -51.014278     -133.406845      -41.659412
 H         -49.774811     -134.455063      -41.102264
 H         -51.598431     -135.871262      -41.437195
 H         -51.823547     -135.392227      -42.967571
