20
 generated by VMD
 C         -49.802334     -141.683990      -45.263474
 N         -49.416634     -142.753754      -45.237957
 H         -51.520554     -139.042435      -46.232815
 H         -50.322582     -140.742447      -45.434025
 C         -52.246063     -139.842911      -46.369362
 C         -52.428116     -140.077011      -47.837795
 C         -53.319145     -140.399109      -45.525162
 C         -53.068630     -141.383423      -48.331402
 C         -53.734356     -141.774841      -46.009769
 C         -54.207321     -141.812408      -47.442104
 H         -51.464493     -140.040710      -48.414284
 H         -52.858894     -139.155045      -48.185337
 H         -52.948219     -140.586029      -44.483887
 H         -54.289906     -140.007965      -45.402798
 H         -52.380127     -142.193253      -48.478611
 H         -53.298843     -141.322128      -49.349346
 H         -54.660480     -141.949936      -45.341202
 H         -53.042370     -142.624283      -45.829258
 H         -54.752026     -142.651962      -47.748272
 H         -54.992119     -141.101974      -47.604435
