20
 generated by VMD
 C         -31.592512      -76.611237      -24.713457
 N         -31.921598      -76.971474      -25.798960
 H         -29.133980      -76.961136      -22.260841
 H         -31.685123      -76.338997      -23.679379
 C         -28.547525      -77.854507      -22.289740
 C         -27.477037      -78.030540      -23.247128
 C         -28.644022      -78.716270      -21.092928
 C         -26.209564      -78.376999      -22.582355
 C         -27.239700      -79.049507      -20.462809
 C         -26.390079      -79.528206      -21.653084
 H         -27.367292      -77.288048      -23.907549
 H         -27.811508      -78.838509      -23.827621
 H         -29.288876      -78.279671      -20.267616
 H         -29.045151      -79.598686      -21.522326
 H         -25.867035      -77.490906      -22.079727
 H         -25.401396      -78.611649      -23.267229
 H         -27.213877      -79.884972      -19.758028
 H         -26.858318      -78.201202      -19.979267
 H         -25.431467      -79.824394      -21.187868
 H         -26.869970      -80.346062      -22.117895
