20
 generated by VMD
 C         -38.664143      -98.896248      -27.419239
 N         -37.904549      -99.391846      -26.714464
 H         -37.248692      -97.146324      -30.341246
 H         -39.437641      -98.559402      -28.170078
 C         -36.201797      -97.157974      -30.546078
 C         -35.574268      -97.687698      -31.852287
 C         -35.359730      -96.581017      -29.433344
 C         -34.301029      -96.919098      -32.290283
 C         -34.394527      -95.651833      -30.007175
 C         -33.538418      -96.415199      -31.118166
 H         -36.414463      -97.683136      -32.606113
 H         -35.336205      -98.750122      -31.677330
 H         -36.032902      -95.987907      -28.729031
 H         -34.849380      -97.410522      -28.910011
 H         -34.579350      -95.990311      -32.862862
 H         -33.674706      -97.650826      -32.802959
 H         -33.702114      -95.384056      -29.174162
 H         -34.911594      -94.759796      -30.397306
 H         -32.725197      -95.939354      -31.565775
 H         -33.088264      -97.259041      -30.444660
