20
 generated by VMD
 C         -58.431793     -160.022812      -57.045368
 N         -58.595295     -159.892395      -58.158955
 H         -58.679054     -162.949875      -54.814018
 H         -58.351051     -160.174118      -55.998356
 C         -59.519024     -162.864548      -54.144348
 C         -59.347916     -163.003540      -52.734417
 C         -60.908997     -162.859512      -54.652496
 C         -60.324921     -162.053970      -52.036716
 C         -62.057568     -162.198349      -53.844963
 C         -61.731018     -162.291183      -52.339447
 H         -58.339005     -162.708267      -52.497238
 H         -59.425930     -164.068924      -52.456615
 H         -60.879375     -162.565079      -55.761761
 H         -61.203846     -163.872116      -54.782433
 H         -60.075790     -160.983704      -52.352940
 H         -59.980354     -162.165283      -50.947506
 H         -63.039814     -162.656204      -54.152393
 H         -62.058887     -161.089951      -53.778168
 H         -62.198566     -161.393829      -51.853024
 H         -62.144302     -163.198303      -51.847340
