20
 generated by VMD
 C         -30.299664      -79.512398      -25.982788
 N         -30.951366      -78.594048      -26.131346
 H         -28.407532      -82.492073      -25.724539
 H         -29.672709      -80.416130      -25.618427
 C         -28.879379      -82.412163      -24.718185
 C         -28.121588      -81.756912      -23.607433
 C         -30.024506      -83.413071      -24.292294
 C         -28.965439      -81.283363      -22.477158
 C         -30.787054      -82.903053      -23.044178
 C         -30.024698      -82.314720      -21.833349
 H         -27.682825      -80.920784      -24.168491
 H         -27.378000      -82.423515      -23.233492
 H         -30.748137      -83.606567      -25.170916
 H         -29.542940      -84.339813      -23.991652
 H         -29.535704      -80.357574      -22.850395
 H         -28.343987      -80.953049      -21.643106
 H         -31.393543      -83.755577      -22.599081
 H         -31.495422      -82.165825      -23.358608
 H         -30.752266      -81.766426      -21.156025
 H         -29.344000      -83.096443      -21.401058
