20
 generated by VMD
 C         -12.616888      -30.253458       -8.102180
 N         -13.126928      -30.589764       -7.165122
 H         -11.274686      -30.572094       -5.396505
 H         -10.639812      -30.840929       -3.771188
 C         -10.909338      -31.276379       -4.754247
 C          -9.612412      -31.756453       -5.278646
 C         -12.008142      -32.307571       -4.611086
 C          -8.998004      -33.059376       -4.629967
 C         -11.423593      -33.542328       -3.946169
 C         -10.159931      -34.116043       -4.510529
 H          -8.858665      -30.933939       -5.214170
 H          -9.731750      -32.015526       -6.305915
 H         -12.867966      -31.933168       -4.043843
 H         -12.315184      -32.567753       -5.639908
 H          -8.642038      -32.737274       -3.616866
 H          -8.091787      -33.362751       -5.235004
 H         -12.242138      -34.277000       -4.032986
 H         -11.238457      -33.334911       -2.872058
 H          -9.828983      -34.988514       -3.929412
 H         -10.464937      -34.322945       -5.547885
