20
 generated by VMD
 C         -31.600662      -76.626617      -24.733528
 N         -31.920074      -76.972580      -25.796875
 H         -29.135662      -76.966698      -22.258585
 H         -31.584249      -76.318329      -23.586124
 C         -28.550417      -77.839577      -22.295946
 C         -27.486130      -78.048264      -23.228010
 C         -28.640408      -78.721306      -21.092930
 C         -26.188547      -78.382019      -22.587637
 C         -27.253546      -79.064316      -20.470137
 C         -26.387236      -79.525085      -21.650631
 H         -27.373730      -77.205284      -23.913671
 H         -27.819620      -78.795547      -23.942047
 H         -29.252371      -78.354431      -20.321075
 H         -29.051441      -79.662964      -21.423740
 H         -25.828218      -77.517952      -22.027443
 H         -25.472801      -78.645378      -23.335911
 H         -27.313776      -79.834686      -19.786554
 H         -26.919178      -78.211823      -19.999725
 H         -25.428345      -79.866211      -21.151426
 H         -26.947475      -80.347404      -22.140697
