20
 generated by VMD
 C         -30.479530      -94.045074      -25.877922
 N         -30.353762      -93.614059      -24.779751
 H         -33.874886      -92.748520      -26.850275
 H         -30.430906      -94.523651      -26.777990
 C         -34.327019      -92.374023      -27.812843
 C         -35.761318      -92.686295      -28.088030
 C         -33.415779      -91.953453      -28.862419
 C         -36.330193      -91.381256      -28.739273
 C         -33.954746      -90.879524      -29.771461
 C         -35.462276      -90.870621      -29.942957
 H         -36.201202      -92.784454      -27.145691
 H         -35.929684      -93.512383      -28.719643
 H         -32.504387      -91.545441      -28.479410
 H         -33.064846      -92.797279      -29.440388
 H         -36.325226      -90.541504      -27.936563
 H         -37.390621      -91.520767      -29.007431
 H         -33.407845      -90.908775      -30.704203
 H         -33.799217      -89.859489      -29.341835
 H         -35.994720      -90.026222      -30.298676
 H         -35.704807      -91.728745      -30.536991
