20
 generated by VMD
 C         -20.200418      -52.195995       -9.840838
 N         -21.074297      -51.470478      -10.174546
 H         -18.204519      -49.308834      -10.518551
 H         -19.338274      -53.007465       -9.730453
 C         -17.541407      -49.328590      -11.413652
 C         -16.947905      -50.638287      -11.726727
 C         -17.216072      -48.151485      -12.296767
 C         -16.800900      -50.809364      -13.270108
 C         -17.044100      -48.364044      -13.775539
 C         -16.205078      -49.636703      -14.029909
 H         -17.480583      -51.429932      -11.250502
 H         -15.911260      -50.615376      -11.356318
 H         -18.022169      -47.374794      -12.221888
 H         -16.310373      -47.707317      -11.888198
 H         -17.842901      -50.874615      -13.618308
 H         -16.317762      -51.739517      -13.644272
 H         -16.576569      -47.420189      -14.292924
 H         -18.034922      -48.379662      -14.260587
 H         -16.196609      -49.856598      -15.109472
 H         -15.176111      -49.425831      -13.724464
