20
 generated by VMD
 C         -31.316397      -79.448952      -26.311443
 N         -30.866247      -78.391266      -26.399469
 H         -28.827942      -81.047112      -25.332388
 H         -31.795923      -80.479065      -26.229450
 C         -28.793041      -81.680412      -24.437916
 C         -27.776501      -81.540771      -23.419935
 C         -29.878267      -82.693848      -24.189510
 C         -28.428577      -81.297607      -21.978533
 C         -30.579868      -82.385292      -22.780174
 C         -29.500532      -82.293320      -21.626526
 H         -27.045662      -80.796005      -23.766094
 H         -27.232157      -82.436081      -23.571608
 H         -30.549543      -82.524811      -25.031151
 H         -29.567684      -83.738136      -24.328300
 H         -28.938156      -80.346436      -21.797852
 H         -27.475689      -81.280006      -21.345335
 H         -31.302683      -83.245766      -22.713434
 H         -31.156504      -81.531990      -22.808279
 H         -29.883486      -82.135880      -20.641321
 H         -29.030571      -83.217606      -21.516500
