20
 generated by VMD
 C         -18.409388      -48.928818       -7.234743
 N         -19.139256      -49.754150       -7.471008
 H         -16.080732      -47.617390      -10.091907
 H         -16.287498      -49.004921      -11.137307
 C         -16.284945      -47.919617      -11.148795
 C         -15.162598      -47.435085      -12.034162
 C         -17.625914      -47.340504      -11.574217
 C         -15.467544      -47.973118      -13.458771
 C         -17.943611      -47.530106      -13.056207
 C         -16.749451      -47.346230      -13.960136
 H         -14.138635      -47.670673      -11.760486
 H         -15.166649      -46.324059      -11.967430
 H         -18.453087      -47.680786      -10.935411
 H         -17.558710      -46.261272      -11.400392
 H         -15.548068      -49.070801      -13.367756
 H         -14.690197      -47.687546      -14.168795
 H         -18.659203      -46.693150      -13.267339
 H         -18.477484      -48.413208      -13.320325
 H         -16.935850      -47.699837      -14.969113
 H         -16.567904      -46.267944      -14.062225
