20
 generated by VMD
 C          -3.947974      -20.513380        3.192857
 N          -4.455826      -19.566425        2.905711
 H          -5.152422      -19.213572       -0.248452
 H          -5.971586      -20.815260       -0.567932
 C          -5.966204      -19.737373       -0.772942
 C          -5.688745      -19.613462       -2.249457
 C          -7.293944      -19.179064       -0.383235
 C          -6.795311      -20.179054       -3.197543
 C          -8.440824      -19.663977       -1.247968
 C          -8.153114      -19.568127       -2.790621
 H          -4.699027      -20.065712       -2.578389
 H          -5.578645      -18.565464       -2.509193
 H          -7.476036      -19.243715        0.714196
 H          -7.227964      -18.105761       -0.490183
 H          -6.864732      -21.224934       -3.068946
 H          -6.534214      -19.974682       -4.234594
 H          -9.377007      -19.124264       -0.974495
 H          -8.666583      -20.713055       -1.104873
 H          -8.977608      -20.072210       -3.305175
 H          -8.251780      -18.483887       -3.120654
