20
 generated by VMD
 C         -14.101569      -28.105272       -3.062800
 N         -14.052821      -27.170017       -3.681976
 H         -10.415430      -28.238119       -2.987541
 H          -9.807586      -27.111809       -4.185422
 C          -9.505186      -27.917625       -3.443302
 C          -8.868838      -29.054688       -4.229030
 C          -8.457379      -27.214130       -2.555434
 C          -7.638134      -28.644897       -5.053360
 C          -7.134095      -26.893333       -3.259959
 C          -6.588582      -27.941076       -4.250891
 H          -9.671947      -29.610159       -4.816880
 H          -8.524395      -29.844139       -3.545278
 H          -8.894037      -26.322020       -2.113461
 H          -8.299562      -27.936409       -1.813974
 H          -8.035780      -27.972952       -5.871655
 H          -7.123869      -29.489847       -5.664644
 H          -6.393411      -26.514391       -2.550947
 H          -7.362091      -26.014473       -3.888661
 H          -5.852030      -27.459036       -4.916668
 H          -6.091652      -28.744503       -3.766278
