20
 generated by VMD
 C          -2.567258      -16.921314        2.820864
 N          -2.342387      -16.647661        1.762533
 H          -4.325848      -15.958318        0.097106
 H          -4.640476      -17.222542       -1.147885
 C          -5.057532      -16.720781       -0.279904
 C          -6.328654      -16.036688       -0.866555
 C          -5.485569      -17.689634        0.817730
 C          -7.178212      -17.119875       -1.494840
 C          -6.522067      -18.670059        0.409764
 C          -7.657251      -18.115049       -0.412036
 H          -6.116465      -15.236118       -1.552746
 H          -6.876664      -15.546682       -0.008219
 H          -4.582062      -18.179615        1.237996
 H          -5.761188      -17.117290        1.664218
 H          -6.720956      -17.588667       -2.368652
 H          -8.112236      -16.655785       -1.915396
 H          -6.948236      -19.047306        1.308635
 H          -6.068974      -19.559479       -0.065024
 H          -8.106522      -19.001808       -0.917782
 H          -8.437092      -17.673100        0.217382
