20
 generated by VMD
 C         -50.885788     -129.442902      -45.244999
 N         -50.934010     -129.887543      -44.167171
 H         -49.185787     -128.617050      -41.987179
 H         -50.776680     -129.301071      -46.342712
 C         -48.171719     -128.890625      -41.512852
 C         -47.878510     -130.273056      -41.071873
 C         -47.266529     -127.877739      -40.932613
 C         -46.452648     -130.720840      -41.343510
 C         -45.845081     -128.152008      -41.350960
 C         -45.481895     -129.644989      -40.894318
 H         -48.596848     -130.881668      -41.528259
 H         -48.000179     -130.278625      -39.909924
 H         -47.384144     -126.784828      -41.252861
 H         -47.411541     -127.821312      -39.904835
 H         -46.427723     -131.006226      -42.359131
 H         -46.044407     -131.627884      -40.898602
 H         -45.103287     -127.687920      -40.718060
 H         -45.608479     -128.054901      -42.448650
 H         -44.454018     -129.929688      -41.240055
 H         -45.568184     -129.645905      -39.801556
