20
 generated by VMD
 C         -65.658272     -177.661957      -56.775543
 N         -66.136475     -176.626328      -56.624840
 H         -64.970619     -175.485107      -59.278145
 H         -65.228378     -178.616776      -56.795258
 C         -64.715111     -174.497253      -59.498684
 C         -65.376404     -173.467331      -58.579567
 C         -63.480633     -174.103363      -60.387753
 C         -65.075119     -171.991730      -58.936115
 C         -63.054565     -172.593826      -60.284367
 C         -64.422829     -171.806519      -60.247959
 H         -65.221519     -173.724106      -57.536366
 H         -66.508118     -173.536530      -58.680374
 H         -62.679371     -174.774918      -60.154503
 H         -63.492569     -174.378204      -61.399998
 H         -64.637238     -171.550247      -58.059772
 H         -66.072998     -171.629700      -58.940475
 H         -62.368259     -172.163284      -61.105194
 H         -62.601284     -172.392227      -59.337517
 H         -64.153336     -170.722305      -60.271347
 H         -64.948257     -172.076920      -61.150776
