20
 generated by VMD
 C         -22.404203      -68.040382      -16.449770
 N         -21.556816      -68.032242      -15.644679
 H         -24.316219      -66.069923      -17.963491
 H         -23.003178      -67.979973      -17.259846
 C         -24.642883      -66.426971      -18.906185
 C         -23.915247      -67.027649      -20.023684
 C         -26.162119      -66.458153      -18.766024
 C         -24.458767      -68.485146      -20.340736
 C         -26.536486      -67.933807      -19.057327
 C         -26.025747      -68.490448      -20.401152
 H         -22.909622      -66.977081      -19.785322
 H         -24.003922      -66.343590      -20.903519
 H         -26.415203      -66.288551      -17.662687
 H         -26.737986      -65.642120      -19.357582
 H         -24.022533      -69.069550      -19.555447
 H         -24.093470      -68.741188      -21.321959
 H         -27.554049      -68.083809      -19.247301
 H         -26.156118      -68.593254      -18.309282
 H         -26.516491      -69.475349      -20.485458
 H         -26.405550      -67.959656      -21.318182
