20
 generated by VMD
 C         -67.760490     -185.833328      -67.137138
 N         -68.744781     -185.832245      -67.778259
 H         -68.643501     -188.379135      -64.540169
 H         -66.736786     -185.813141      -66.646027
 C         -69.242844     -187.868225      -63.811054
 C         -68.976372     -186.636734      -63.029434
 C         -70.591171     -188.319046      -63.790695
 C         -69.391762     -186.748199      -61.600590
 C         -71.399658     -188.297943      -62.404385
 C         -70.996635     -187.130508      -61.463848
 H         -69.449539     -185.752319      -63.431152
 H         -67.976761     -186.295013      -63.220688
 H         -71.215477     -187.815659      -64.534569
 H         -70.637337     -189.378922      -64.193520
 H         -69.296616     -185.767532      -61.168541
 H         -68.834473     -187.556900      -61.019588
 H         -71.042793     -189.123367      -61.878666
 H         -72.412766     -188.478073      -62.639030
 H         -71.411064     -186.071823      -61.672493
 H         -71.224220     -187.502151      -60.447388
