20
 generated by VMD
 C         -68.946167     -180.591904      -62.541065
 N         -70.008385     -180.450027      -62.120720
 H         -66.825447     -181.033203      -59.374855
 H         -68.006027     -180.681213      -62.984806
 C         -66.353012     -180.114838      -59.848663
 C         -65.209229     -180.206436      -60.800762
 C         -66.819267     -178.746567      -59.306583
 C         -65.013184     -179.010742      -61.614471
 C         -66.375641     -177.558609      -60.110069
 C         -65.091286     -177.692566      -60.825352
 H         -65.243011     -181.163910      -61.444782
 H         -64.241180     -180.152603      -60.113743
 H         -67.959206     -178.778809      -59.309208
 H         -66.516968     -178.617493      -58.261765
 H         -65.769646     -179.003723      -62.474567
 H         -64.094994     -179.242172      -62.191727
 H         -66.356628     -176.708618      -59.451431
 H         -67.130074     -177.473206      -60.915173
 H         -65.043930     -176.988846      -61.673664
 H         -64.057869     -177.596771      -60.229233
