20
 generated by VMD
 C         -59.437973     -158.361649      -57.447811
 N         -58.448895     -158.409180      -57.975529
 H         -59.791901     -158.818146      -54.157005
 H         -60.407875     -158.290588      -56.961338
 C         -59.803295     -159.476562      -53.313236
 C         -58.652714     -159.421936      -52.365944
 C         -60.720772     -160.668579      -53.349308
 C         -58.479942     -160.508316      -51.286007
 C         -60.699852     -161.600677      -52.059460
 C         -59.203934     -161.844589      -51.584694
 H         -58.692402     -158.321808      -51.984978
 H         -57.733063     -159.357803      -52.987171
 H         -61.675365     -160.293030      -53.663876
 H         -60.287125     -161.349792      -54.112976
 H         -58.909760     -160.066147      -50.283222
 H         -57.470745     -160.774109      -51.074276
 H         -61.200882     -162.568359      -52.078377
 H         -61.298321     -161.076233      -51.364555
 H         -59.290901     -162.378860      -50.598801
 H         -58.519650     -162.433670      -52.277405
