20
 generated by VMD
 C         -68.353653     -193.581970      -65.040451
 N         -68.339989     -194.716766      -65.378830
 H         -70.710022     -193.000610      -67.120399
 H         -68.214119     -192.572556      -64.617104
 C         -71.679398     -192.530899      -66.899071
 C         -71.750191     -191.175919      -66.417404
 C         -72.847473     -193.455765      -66.954582
 C         -73.252762     -190.807709      -66.115288
 C         -73.585098     -193.351913      -65.582245
 C         -74.049316     -191.916382      -65.314461
 H         -71.414818     -190.326965      -67.126335
 H         -71.285568     -191.082703      -65.435387
 H         -73.416428     -193.065369      -67.842522
 H         -72.420563     -194.533173      -67.052750
 H         -73.830032     -190.724869      -67.024750
 H         -73.358131     -189.880844      -65.531395
 H         -72.870468     -193.654984      -64.787956
 H         -74.412949     -194.021942      -65.610146
 H         -75.058846     -191.846405      -65.589897
 H         -73.911613     -191.652313      -64.218399
