20
 generated by VMD
 C         -28.062033      -73.400307      -18.283022
 N         -28.962202      -73.434723      -17.573650
 H         -25.292824      -72.067986      -18.791298
 H         -27.511072      -73.265884      -19.116879
 C         -25.448454      -71.946030      -19.827581
 C         -24.530539      -72.793610      -20.635223
 C         -25.915081      -70.568695      -20.332708
 C         -25.188660      -73.050148      -22.040768
 C         -26.297806      -70.719917      -21.912006
 C         -25.528278      -71.802132      -22.747469
 H         -24.248569      -73.730652      -20.113581
 H         -23.505426      -72.314133      -20.909964
 H         -26.844645      -70.168526      -19.843035
 H         -25.223957      -69.772415      -20.243820
 H         -26.065607      -73.712013      -21.818869
 H         -24.570005      -73.737900      -22.646702
 H         -26.252926      -69.796516      -22.489300
 H         -27.342896      -70.990456      -21.961040
 H         -26.035498      -72.105743      -23.661617
 H         -24.514553      -71.422134      -23.096254
