20
 generated by VMD
 C         -51.526306     -129.769974      -45.195766
 N         -51.676533     -129.993271      -46.373318
 H         -48.331635     -130.102020      -43.533337
 H         -51.251232     -129.605560      -44.120350
 C         -47.902950     -130.353271      -42.485058
 C         -48.031960     -131.777435      -41.893345
 C         -47.531864     -129.204575      -41.690121
 C         -46.788132     -132.017776      -41.070278
 C         -46.266476     -129.519775      -40.972446
 C         -46.389610     -130.852585      -40.235165
 H         -48.062263     -132.683090      -42.613266
 H         -48.854210     -131.825241      -41.248043
 H         -47.403225     -128.284698      -42.299545
 H         -48.423866     -128.885559      -40.990437
 H         -46.005493     -132.150787      -41.874416
 H         -47.113499     -132.930283      -40.583355
 H         -45.947689     -128.809891      -40.182034
 H         -45.467934     -129.642044      -41.580025
 H         -45.552822     -131.196991      -39.620232
 H         -47.123875     -130.694092      -39.407177
