20
 generated by VMD
 C         -28.008930      -83.176369      -27.391020
 N         -27.241489      -83.429626      -26.525591
 H         -31.265409      -84.253197      -26.480099
 H         -28.779320      -82.851700      -28.023945
 C         -31.663431      -85.115829      -25.835812
 C         -31.577353      -84.969444      -24.335737
 C         -32.145226      -86.408997      -26.426857
 C         -32.579464      -85.837639      -23.497522
 C         -33.322792      -87.012779      -25.549900
 C         -32.925850      -87.188354      -24.134228
 H         -31.718809      -83.936020      -24.018238
 H         -30.526976      -85.066383      -24.021879
 H         -32.605175      -86.218330      -27.402887
 H         -31.306137      -87.064430      -26.541624
 H         -33.508583      -85.273048      -23.501083
 H         -32.088203      -85.951279      -22.459305
 H         -33.733635      -88.034180      -26.003315
 H         -34.223408      -86.324730      -25.491486
 H         -33.714905      -87.822922      -23.523867
 H         -31.970839      -87.772522      -23.949947
