20
 generated by VMD
 C         -75.101357     -201.361816      -66.502693
 N         -75.385071     -201.991806      -65.578262
 H         -76.393875     -199.157196      -69.404961
 H         -74.654457     -200.772568      -67.281342
 C         -75.296013     -199.057846      -69.260063
 C         -74.917091     -198.049805      -68.117081
 C         -74.210785     -199.685684      -70.052444
 C         -73.354034     -197.786957      -68.016472
 C         -73.146255     -198.705078      -70.431839
 C         -72.743279     -197.550339      -69.381912
 H         -75.308586     -198.329208      -67.012276
 H         -75.401001     -197.117126      -68.418884
 H         -73.841782     -200.540054      -69.484077
 H         -74.595734     -200.038528      -70.972054
 H         -72.772392     -198.593643      -67.507004
 H         -73.271637     -196.807510      -67.441162
 H         -73.398087     -198.078796      -71.304108
 H         -72.296234     -199.309982      -70.938354
 H         -71.605934     -197.570847      -69.314796
 H         -73.126144     -196.598434      -69.786285
