20
 generated by VMD
 C         -22.613087      -53.067463      -12.500891
 N         -22.795706      -52.524662      -13.478731
 H         -20.378277      -54.404942      -14.196409
 H         -22.449247      -53.364494      -11.624239
 C         -19.346087      -54.217842      -13.962619
 C         -18.973560      -52.770844      -13.828685
 C         -18.522892      -55.320698      -13.551838
 C         -17.507265      -52.327423      -13.652838
 C         -17.259768      -54.805534      -12.837855
 C         -16.679106      -53.602356      -13.605403
 H         -19.478878      -52.365925      -12.925565
 H         -19.552546      -52.162289      -14.623133
 H         -19.194853      -56.049404      -13.003474
 H         -18.125343      -55.820152      -14.436856
 H         -17.393250      -51.716221      -12.735648
 H         -17.192987      -51.688988      -14.510282
 H         -16.546467      -55.631683      -12.601460
 H         -17.568279      -54.379936      -11.864045
 H         -15.683202      -53.488689      -13.202605
 H         -16.498720      -53.852283      -14.614649
