20
 generated by VMD
 C         -25.637360      -71.497452      -16.861692
 N         -26.425379      -72.289108      -16.486530
 H         -24.310270      -68.857132      -18.872078
 H         -25.068384      -70.705101      -17.210445
 C         -24.851419      -69.501060      -19.561747
 C         -24.079298      -70.484833      -20.452553
 C         -25.766619      -68.727287      -20.273695
 C         -25.060907      -71.324745      -21.256435
 C         -26.661865      -69.530853      -21.158436
 C         -26.054733      -70.515213      -22.086052
 H         -23.501461      -71.082451      -19.678020
 H         -23.347149      -69.783089      -20.962214
 H         -26.399069      -68.226479      -19.528433
 H         -25.204910      -67.921257      -20.928116
 H         -25.676643      -72.058014      -20.678402
 H         -24.552225      -71.940933      -21.968407
 H         -27.110832      -68.752975      -21.802269
 H         -27.355652      -69.975014      -20.404167
 H         -26.828358      -71.220329      -22.318151
 H         -25.622513      -70.016983      -22.958155
