20
 generated by VMD
 C         -11.047641      -32.923855       -8.701161
 N         -11.815295      -33.124622       -9.511696
 H         -12.173212      -33.702789       -6.359936
 H         -12.726936      -34.262295       -4.775477
 C         -12.421943      -34.603127       -5.803874
 C         -11.212661      -35.489010       -5.762136
 C         -13.679693      -35.341766       -6.328091
 C         -11.518563      -36.808235       -5.132303
 C         -13.906757      -36.743538       -5.671498
 C         -12.602164      -37.589993       -5.824178
 H         -10.437481      -34.983067       -5.142836
 H         -10.646036      -35.624172       -6.700260
 H         -14.578224      -34.733089       -6.137814
 H         -13.717347      -35.613102       -7.355414
 H         -11.723643      -36.637917       -4.056989
 H         -10.608211      -37.372005       -4.969765
 H         -14.703380      -37.247368       -6.122885
 H         -14.254545      -36.658779       -4.589638
 H         -12.748387      -38.489319       -5.139379
 H         -12.474659      -37.933472       -6.869941
