20
 generated by VMD
 C         -20.972454      -56.515865      -17.000851
 N         -21.160919      -55.578911      -17.618357
 H         -22.644640      -58.412941      -16.325321
 H         -20.725584      -57.417580      -16.256609
 C         -22.137785      -59.183350      -15.721811
 C         -22.024282      -58.963005      -14.196741
 C         -21.703703      -60.430492      -16.369505
 C         -20.993740      -59.946087      -13.560622
 C         -20.489494      -61.017143      -15.680599
 C         -20.807690      -61.238144      -14.203094
 H         -23.074087      -59.253464      -13.922669
 H         -21.775473      -57.991169      -13.845180
 H         -22.534002      -61.117466      -16.350430
 H         -21.555353      -60.209396      -17.402088
 H         -21.429245      -60.090805      -12.528694
 H         -19.992542      -59.470291      -13.595977
 H         -19.745567      -60.241238      -15.681952
 H         -20.169149      -61.896530      -16.232231
 H         -21.722292      -61.845062      -14.141088
 H         -20.072725      -61.861031      -13.741442
