20
 generated by VMD
 C         -51.191429     -145.415451      -44.176052
 N         -51.209850     -146.391846      -44.741905
 H         -53.803383     -145.213989      -47.088112
 H         -51.275906     -144.474213      -43.718922
 C         -53.681236     -144.154190      -47.363094
 C         -52.685028     -144.012756      -48.578796
 C         -54.764267     -143.046661      -47.247280
 C         -53.388744     -143.785843      -49.873753
 C         -55.467407     -142.899994      -48.590309
 C         -54.448921     -142.671783      -49.775139
 H         -52.149277     -144.958130      -48.711998
 H         -51.885159     -143.302719      -48.386543
 H         -55.409885     -143.148956      -46.358513
 H         -54.340591     -142.073624      -46.996780
 H         -53.917549     -144.656937      -50.369225
 H         -52.720299     -143.384521      -50.735985
 H         -56.185440     -142.045807      -48.532719
 H         -55.897614     -143.862579      -48.950172
 H         -55.041264     -142.557236      -50.710381
 H         -53.825806     -141.798798      -49.690716
