20
 generated by VMD
 C         -57.440506     -162.639694      -56.265213
 N         -57.145878     -162.217834      -57.334587
 H         -59.716312     -165.237671      -55.158646
 H         -57.686840     -163.055801      -55.265095
 C         -60.580265     -164.550217      -54.842571
 C         -60.899940     -164.369308      -53.434414
 C         -61.752686     -164.659470      -55.726280
 C         -62.282536     -163.751617      -52.984608
 C         -62.795799     -163.573090      -55.583176
 C         -63.279095     -163.775406      -54.152809
 H         -60.079182     -163.720032      -53.053051
 H         -60.905041     -165.433182      -52.999142
 H         -61.432373     -164.539948      -56.801151
 H         -62.124355     -165.637436      -55.527672
 H         -62.132767     -162.742722      -52.656460
 H         -62.660534     -164.229462      -52.059586
 H         -63.743382     -163.758728      -56.171581
 H         -62.460758     -162.501938      -55.629948
 H         -64.092567     -163.016220      -53.850323
 H         -63.784061     -164.770172      -53.934589
