20
 generated by VMD
 C         -12.320776      -27.520144       -4.616804
 N         -13.138268      -28.180090       -5.022015
 H         -10.793058      -30.545084       -2.868693
 H         -11.011570      -28.844418       -3.590107
 C         -10.257366      -29.659250       -3.353806
 C          -9.633179      -30.303600       -4.569265
 C          -9.160033      -29.033127       -2.414039
 C          -8.636031      -29.448488       -5.299232
 C          -8.370211      -28.053232       -3.250461
 C          -7.651339      -28.792099       -4.349337
 H         -10.546870      -30.509527       -5.228311
 H          -9.220817      -31.267658       -4.385248
 H          -9.651100      -28.534565       -1.585614
 H          -8.545403      -29.757185       -1.895153
 H          -9.189954      -28.684999       -5.890986
 H          -8.023037      -30.085667       -6.006877
 H          -7.537289      -27.595318       -2.636786
 H          -8.883286      -27.211781       -3.653265
 H          -7.051438      -28.096399       -4.913247
 H          -7.086302      -29.611668       -3.864724
