20
 generated by VMD
 C         -49.840405     -131.963928      -46.615788
 N         -50.032776     -132.558960      -47.540688
 H         -48.054089     -132.519196      -44.242878
 H         -49.715828     -131.154480      -45.882484
 C         -48.830280     -132.878464      -43.491596
 C         -49.549068     -134.082291      -43.864170
 C         -48.909878     -132.439392      -42.075485
 C         -49.353970     -135.241089      -42.900787
 C         -48.771915     -133.657089      -41.033367
 C         -49.754402     -134.771500      -41.493954
 H         -49.083241     -134.582123      -44.771839
 H         -50.582329     -133.966934      -44.076900
 H         -48.265572     -131.629837      -41.748772
 H         -49.916313     -132.029510      -42.051159
 H         -48.340961     -135.635147      -42.906509
 H         -50.044498     -136.053329      -43.170723
 H         -49.056305     -133.236969      -40.060062
 H         -47.720474     -134.166901      -40.978088
 H         -49.716694     -135.485474      -40.767750
 H         -50.774261     -134.377625      -41.406036
