20
 generated by VMD
 C         -36.521236      -97.822830      -26.704916
 N         -35.980427      -98.207840      -25.730698
 H         -36.223309      -95.134743      -28.424402
 H         -37.167183      -97.422737      -27.467352
 C         -35.395020      -95.331459      -29.087690
 C         -35.705849      -96.184464      -30.284170
 C         -34.212788      -94.512108      -29.112778
 C         -35.369804      -95.420403      -31.566860
 C         -33.885582      -93.751083      -30.410822
 C         -33.965870      -94.825241      -31.599058
 H         -36.741554      -96.622139      -30.286352
 H         -34.984722      -97.012627      -30.017920
 H         -34.398746      -93.726974      -28.388842
 H         -33.233940      -94.981514      -28.870573
 H         -36.112644      -94.643295      -31.768797
 H         -35.390217      -96.171066      -32.433140
 H         -32.887310      -93.400688      -30.302208
 H         -34.442249      -92.750023      -30.460972
 H         -33.802975      -94.328888      -32.419891
 H         -33.162319      -95.626053      -31.372372
