20
 generated by VMD
 C         -11.599926      -41.858967       -6.110891
 N         -10.885681      -41.495213       -6.881262
 H         -14.598082      -41.347321       -8.366816
 H         -15.393131      -40.631767       -9.718700
 C         -15.244344      -41.520638       -9.229650
 C         -16.677116      -41.942329       -8.708570
 C         -14.597474      -42.527027      -10.178058
 C         -17.565489      -42.534184       -9.818793
 C         -15.520926      -42.947529      -11.313148
 C         -16.773905      -43.553429      -10.628447
 H         -17.158945      -41.142338       -8.192076
 H         -16.511717      -42.705696       -7.974988
 H         -13.618333      -42.190987      -10.625584
 H         -14.298884      -43.443893       -9.686541
 H         -18.015308      -41.749695      -10.524752
 H         -18.512873      -42.906654       -9.374912
 H         -15.105227      -43.658321      -11.966567
 H         -15.823620      -41.993141      -11.897359
 H         -17.485435      -43.913578      -11.385829
 H         -16.385712      -44.397839      -10.002434
