20
 generated by VMD
 C         -11.077475      -38.750229       -6.869785
 N         -11.974320      -38.231209       -7.267104
 H         -12.674933      -41.613136       -8.997922
 H         -13.509952      -40.386375       -8.225319
 C         -13.687007      -41.206577       -8.837850
 C         -14.479226      -42.226257       -8.023278
 C         -14.403710      -40.911648      -10.163740
 C         -15.898140      -41.852516       -7.884774
 C         -15.735540      -40.370514       -9.869447
 C         -16.613647      -41.351055       -9.161366
 H         -14.018638      -42.198589       -7.002911
 H         -14.395262      -43.191296       -8.538652
 H         -13.754478      -40.152103      -10.708687
 H         -14.492146      -41.869984      -10.700135
 H         -15.999070      -41.093143       -7.109005
 H         -16.432079      -42.802746       -7.600339
 H         -16.275219      -40.029686      -10.696600
 H         -15.627257      -39.392082       -9.271902
 H         -17.557037      -40.893997       -8.844904
 H         -16.963181      -42.119057       -9.830686
