20
 generated by VMD
 C         -41.631069     -102.454765      -35.860977
 N         -41.455215     -103.592697      -35.743736
 H         -39.200264     -104.749352      -33.817261
 H         -41.576092     -101.342697      -36.046165
 C         -38.609234     -105.248390      -33.036476
 C         -37.116100     -104.674652      -32.883152
 C         -39.022835     -106.411980      -32.287003
 C         -36.474346     -104.914238      -31.465065
 C         -38.254513     -106.751846      -30.939213
 C         -36.811058     -106.366562      -30.960428
 H         -37.079723     -103.597649      -33.123936
 H         -36.472271     -105.198524      -33.576778
 H         -40.091091     -106.297081      -31.896112
 H         -39.039551     -107.270592      -32.865032
 H         -36.943714     -104.273117      -30.802519
 H         -35.434238     -104.644089      -31.395277
 H         -38.493851     -107.822784      -30.803564
 H         -38.659599     -106.279091      -30.086805
 H         -36.476402     -106.375671      -29.948795
 H         -36.095261     -107.078667      -31.466055
