20
 generated by VMD
 C          -5.967026      -20.934668        1.769678
 N          -5.927021      -21.983475        2.132266
 H          -5.058894      -18.460363       -1.129333
 H          -5.607090      -19.947721       -0.151986
 C          -5.736131      -19.358660       -1.126844
 C          -5.527367      -20.357183       -2.296417
 C          -7.108374      -18.738026       -1.271682
 C          -6.598097      -21.517986       -2.363269
 C          -8.227621      -19.783707       -1.329080
 C          -8.020025      -20.918657       -2.355999
 H          -4.561645      -20.736517       -2.186821
 H          -5.675941      -19.870466       -3.288891
 H          -7.333409      -18.071264       -0.394158
 H          -7.082413      -18.149433       -2.315235
 H          -6.484656      -22.182972       -1.528802
 H          -6.389890      -22.062569       -3.258908
 H          -9.174767      -19.308485       -1.564050
 H          -8.331647      -20.218664       -0.329504
 H          -8.708002      -21.734512       -2.090603
 H          -8.251732      -20.485369       -3.341163
