20
 generated by VMD
 C         -13.106818      -28.656368       -5.725768
 N         -12.707656      -27.677996       -5.385550
 H         -11.524232      -30.943750       -3.434526
 H         -11.265313      -29.563656       -4.278723
 C         -10.668074      -30.362074       -3.768008
 C          -9.758144      -31.102285       -4.775492
 C          -9.788395      -29.751257       -2.592788
 C          -8.703446      -30.157234       -5.334127
 C          -8.668579      -28.920418       -3.147037
 C          -7.784619      -29.635515       -4.220972
 H         -10.463217      -31.544800       -5.543877
 H          -9.275829      -31.960155       -4.414797
 H         -10.395908      -29.261360       -1.829032
 H          -9.371335      -30.695232       -2.120084
 H          -9.205991      -29.334326       -5.797094
 H          -8.161726      -30.551514       -6.181942
 H          -8.011567      -28.464766       -2.352829
 H          -9.073285      -28.040548       -3.646834
 H          -7.086572      -28.942703       -4.614664
 H          -7.278378      -30.425034       -3.610977
