20
 generated by VMD
 C         -23.258024      -53.906441      -14.808413
 N         -24.229252      -53.370983      -15.128114
 H         -20.439138      -54.995186      -15.409859
 H         -22.046253      -54.217537      -14.637568
 C         -19.596174      -55.255814      -14.571956
 C         -18.984060      -54.297760      -13.614276
 C         -18.907244      -56.549538      -14.947723
 C         -18.401402      -55.041977      -12.438128
 C         -17.936365      -57.032051      -13.775200
 C         -17.327171      -55.881569      -13.027414
 H         -19.657345      -53.619705      -13.156311
 H         -18.218534      -53.684521      -14.070007
 H         -19.690365      -57.394714      -14.963778
 H         -18.416206      -56.568806      -15.937432
 H         -19.141432      -55.666256      -11.895332
 H         -18.117783      -54.331944      -11.645224
 H         -17.174099      -57.667454      -14.304854
 H         -18.454842      -57.655098      -13.086871
 H         -16.656961      -56.250526      -12.253898
 H         -16.637491      -55.305244      -13.672746
