20
 generated by VMD
 C         -60.801903     -153.312347      -52.336601
 N         -61.002277     -153.447540      -51.253792
 H         -57.463257     -154.031357      -51.158237
 H         -60.611629     -153.008041      -53.358471
 C         -56.711006     -153.353088      -50.787567
 C         -55.845882     -153.735184      -49.620708
 C         -56.394257     -152.146698      -51.582527
 C         -54.360664     -153.379089      -49.819489
 C         -54.913345     -151.850403      -51.717396
 C         -54.149544     -152.002884      -50.372501
 H         -55.878963     -154.823013      -49.494446
 H         -56.046314     -153.150711      -48.707165
 H         -56.924423     -152.004807      -52.540577
 H         -56.735348     -151.351593      -50.944416
 H         -53.725262     -154.032425      -50.490471
 H         -53.756451     -153.567352      -48.848469
 H         -54.861153     -150.906082      -52.098480
 H         -54.386337     -152.615326      -52.387436
 H         -53.039524     -151.847794      -50.522316
 H         -54.289902     -151.342529      -49.488068
