20
 generated by VMD
 C         -11.615663      -31.992281       -8.964814
 N         -12.356592      -32.538689       -9.638651
 H         -11.204989      -34.029797       -6.748051
 H         -12.007504      -33.905437       -5.199197
 C         -11.752768      -34.651047       -5.949133
 C         -10.800644      -35.704773       -5.417747
 C         -13.047908      -35.198513       -6.488969
 C         -11.518641      -36.706932       -4.488375
 C         -13.712151      -36.278618       -5.681648
 C         -12.717792      -37.346565       -5.254313
 H          -9.911484      -35.275997       -4.921442
 H         -10.458736      -36.320972       -6.274459
 H         -13.657241      -34.357746       -6.823043
 H         -12.771086      -35.659176       -7.449650
 H         -11.896134      -36.253399       -3.597625
 H         -10.814829      -37.494652       -4.234118
 H         -14.479753      -36.785233       -6.381158
 H         -14.217621      -35.878628       -4.861197
 H         -13.192101      -38.052628       -4.584969
 H         -12.362061      -37.918015       -6.167702
