20
 generated by VMD
 C          -6.870360      -23.306940        2.877807
 N          -6.924219      -22.591522        2.039826
 H          -8.046430      -22.852331       -0.639840
 H          -9.124275      -22.231882       -1.941346
 C          -8.052683      -22.320398       -1.649352
 C          -7.128886      -23.013361       -2.612847
 C          -7.533174      -20.900120       -1.358418
 C          -7.038214      -22.318008       -3.901526
 C          -7.486248      -20.120592       -2.703516
 C          -6.577892      -20.861752       -3.732950
 H          -7.508967      -24.033260       -2.856980
 H          -6.227499      -23.338825       -2.105077
 H          -8.369895      -20.426586       -0.770434
 H          -6.543163      -20.882431       -0.914778
 H          -8.052809      -22.353207       -4.403239
 H          -6.231838      -22.773443       -4.533640
 H          -7.001608      -19.126659       -2.553579
 H          -8.505524      -20.093822       -3.143149
 H          -6.560863      -20.337437       -4.710556
 H          -5.522034      -20.874004       -3.358070
