20
 generated by VMD
 C         -70.214424     -182.808258      -65.940659
 N         -71.127197     -183.493362      -65.620499
 H         -67.939056     -182.371246      -63.032204
 H         -69.366920     -182.136292      -66.206017
 C         -67.332504     -182.207413      -62.161835
 C         -67.601830     -183.132614      -61.010597
 C         -66.982277     -180.820007      -61.846371
 C         -66.639725     -183.065933      -59.894646
 C         -66.213631     -180.699280      -60.528831
 C         -66.545761     -181.653351      -59.366802
 H         -67.631409     -184.211838      -61.292999
 H         -68.652374     -182.883255      -60.778473
 H         -66.462929     -180.299591      -62.644604
 H         -67.907845     -180.204620      -61.501163
 H         -65.694496     -183.536011      -60.113186
 H         -66.855820     -183.636307      -59.044712
 H         -66.295464     -179.683151      -60.120655
 H         -65.170792     -180.786072      -60.908409
 H         -65.694000     -181.634521      -58.743015
 H         -67.508644     -181.312943      -58.844326
