20
 generated by VMD
 C         -68.281525     -179.596100      -58.498688
 N         -67.511139     -179.228149      -57.703987
 H         -66.124298     -176.735153      -59.305901
 H         -69.045189     -179.862930      -59.233181
 C         -65.568321     -175.798782      -59.602467
 C         -66.041725     -174.699615      -60.436810
 C         -64.025444     -176.096405      -59.651901
 C         -65.147003     -173.483170      -60.596077
 C         -63.261650     -174.699112      -59.546032
 C         -63.678696     -173.770081      -60.676315
 H         -67.019531     -174.409958      -60.052322
 H         -66.208199     -174.805588      -61.571159
 H         -63.820339     -176.727844      -58.802788
 H         -63.835968     -176.702347      -60.526882
 H         -65.240524     -172.694931      -59.791801
 H         -65.368919     -172.981339      -61.588776
 H         -62.225376     -174.854172      -59.888611
 H         -63.263676     -174.217560      -58.552002
 H         -63.133865     -172.822586      -60.661026
 H         -63.498070     -174.045197      -61.760326
