20
 generated by VMD
 C         -66.707306     -190.387161      -66.631340
 N         -67.784935     -190.236267      -66.193794
 H         -70.609032     -190.918640      -66.573929
 H         -65.632759     -190.338882      -66.868324
 C         -71.205078     -190.458588      -65.729271
 C         -72.350586     -191.220276      -65.146225
 C         -70.584038     -189.395523      -64.766876
 C         -73.284271     -190.309875      -64.342796
 C         -71.523560     -188.670441      -63.782982
 C         -72.520248     -189.620346      -63.261208
 H         -72.057259     -192.046249      -64.405853
 H         -72.991020     -191.569733      -65.985046
 H         -69.750534     -189.916168      -64.177040
 H         -70.147644     -188.608246      -65.509415
 H         -73.948822     -190.988235      -63.862053
 H         -73.723404     -189.591049      -65.018990
 H         -71.995262     -187.753357      -64.258354
 H         -70.914421     -188.251694      -62.973183
 H         -72.115616     -190.544189      -62.707775
 H         -73.070862     -189.036942      -62.459553
