20
 generated by VMD
 C         -23.463253      -53.215984      -13.918801
 N         -24.091312      -53.087605      -14.945912
 H         -20.701105      -55.379486      -14.952719
 H         -22.887037      -53.102074      -13.022912
 C         -19.571211      -55.305328      -14.479203
 C         -19.057858      -54.000763      -13.944947
 C         -18.567274      -56.499275      -14.593162
 C         -18.290691      -54.403294      -12.652553
 C         -17.364330      -56.562160      -13.668379
 C         -17.067373      -55.270630      -12.982520
 H         -19.938986      -53.383865      -13.528781
 H         -18.356390      -53.429066      -14.671675
 H         -19.184284      -57.388157      -14.410451
 H         -18.246874      -56.572094      -15.705216
 H         -18.849140      -55.015251      -11.946581
 H         -18.050003      -53.460915      -12.161794
 H         -16.493057      -56.943592      -14.123318
 H         -17.569603      -57.261341      -12.817753
 H         -16.385466      -55.422543      -12.125789
 H         -16.472086      -54.701195      -13.667906
