20
 generated by VMD
 C         -56.138588     -150.162094      -47.220676
 N         -57.118534     -150.251114      -46.610622
 H         -53.299088     -147.862747      -47.479717
 H         -55.257492     -150.081390      -47.889015
 C         -53.786755     -147.632950      -48.478439
 C         -53.157887     -148.154572      -49.727551
 C         -54.557346     -146.337585      -48.487614
 C         -54.143295     -148.158813      -50.845387
 C         -55.452950     -146.333252      -49.799488
 C         -54.570934     -146.670471      -51.103699
 H         -52.757492     -149.098953      -49.426491
 H         -52.342926     -147.434326      -49.946907
 H         -55.235058     -146.209991      -47.681152
 H         -53.775543     -145.522980      -48.537666
 H         -55.092041     -148.670395      -50.559666
 H         -53.720306     -148.668457      -51.704887
 H         -55.872643     -145.368607      -49.876911
 H         -56.274826     -147.209274      -49.855167
 H         -55.249615     -146.723495      -51.925617
 H         -53.718575     -146.024658      -51.297398
