20
 generated by VMD
 C         -11.494329      -41.937187       -6.136395
 N         -10.946491      -41.361050       -6.896751
 H         -14.618356      -41.077950       -8.477744
 H         -15.489993      -40.500824       -9.738778
 C         -15.278023      -41.414539       -9.253535
 C         -16.587578      -41.975021       -8.674345
 C         -14.585024      -42.351158      -10.148926
 C         -17.499130      -42.477787       -9.838080
 C         -15.539093      -42.954639      -11.195823
 C         -16.775370      -43.554607      -10.552408
 H         -17.109426      -41.106060       -8.216249
 H         -16.391382      -42.750713       -7.939827
 H         -13.764549      -41.817631      -10.736101
 H         -14.090837      -43.196453       -9.658162
 H         -17.833130      -41.708488      -10.577702
 H         -18.455202      -42.757282       -9.384038
 H         -15.085963      -43.679428      -11.839574
 H         -15.840017      -42.105839      -11.868562
 H         -17.481373      -43.958717      -11.290198
 H         -16.438757      -44.362804       -9.924662
