20
 generated by VMD
 C          -3.640359      -20.111719        3.367964
 N          -4.111417      -19.168713        3.010785
 H          -5.207841      -19.831680       -0.132806
 H          -6.188543      -21.075603       -0.831898
 C          -6.067085      -19.982676       -0.779637
 C          -5.720650      -19.568701       -2.141828
 C          -7.350315      -19.362440       -0.309108
 C          -6.802822      -19.787472       -3.157426
 C          -8.467478      -19.669500       -1.325036
 C          -8.109685      -19.147505       -2.743709
 H          -4.821243      -20.004995       -2.464584
 H          -5.459102      -18.466339       -2.223753
 H          -7.597935      -19.775063        0.744085
 H          -7.303930      -18.254103       -0.098071
 H          -6.900500      -20.831434       -3.400699
 H          -6.532537      -19.302620       -4.076676
 H          -9.396081      -19.236305       -1.027685
 H          -8.643266      -20.755699       -1.420948
 H          -8.955461      -19.322954       -3.439290
 H          -8.011261      -18.045145       -2.805506
