20
 generated by VMD
 C         -10.289785      -36.164963       -7.287941
 N          -9.918687      -36.958370       -8.009696
 H         -13.384454      -38.324703       -7.723074
 H         -14.612841      -38.971611       -6.749088
 C         -14.130596      -39.053318       -7.691204
 C         -13.540055      -40.491726       -7.787409
 C         -15.184569      -38.886681       -8.784589
 C         -14.693391      -41.458988       -7.462977
 C         -16.352373      -39.917877       -8.735329
 C         -15.790771      -41.415199       -8.519512
 H         -12.678796      -40.596218       -7.119506
 H         -13.008379      -40.624504       -8.734528
 H         -15.682679      -37.885544       -8.666945
 H         -14.674663      -38.784790       -9.781707
 H         -15.079027      -41.182049       -6.424301
 H         -14.437891      -42.516747       -7.323072
 H         -17.007921      -39.936920       -9.636784
 H         -16.997503      -39.748703       -7.891453
 H         -16.629961      -42.080162       -8.311580
 H         -15.329562      -41.732956       -9.469482
