20
 generated by VMD
 C         -49.550823     -127.711441      -40.005371
 N         -50.499393     -127.642723      -40.697926
 H         -47.530365     -127.354477      -41.976120
 H         -48.508797     -127.743599      -39.672337
 C         -46.816319     -126.741623      -41.458984
 C         -45.793545     -127.277229      -40.460491
 C         -46.814480     -125.213470      -41.766251
 C         -44.448586     -126.582397      -40.504780
 C         -45.380074     -124.556511      -41.741478
 C         -44.486118     -125.054993      -40.565323
 H         -45.712677     -128.333923      -40.720112
 H         -46.241940     -127.335678      -39.486130
 H         -47.177040     -125.129417      -42.830883
 H         -47.406708     -124.700714      -40.939472
 H         -43.735432     -126.884712      -41.321251
 H         -43.972763     -126.769409      -39.526604
 H         -45.509666     -123.451630      -41.763149
 H         -44.733898     -124.839371      -42.641045
 H         -43.484295     -124.675934      -40.705376
 H         -44.879337     -124.733498      -39.536465
