20
 generated by VMD
 C         -41.446365     -120.194885      -33.996101
 N         -42.042782     -121.066734      -34.487453
 H         -43.408588     -119.093979      -37.230553
 H         -41.049194     -119.431427      -33.270550
 C         -43.966648     -118.880516      -38.184418
 C         -43.102760     -118.606705      -39.422726
 C         -45.328705     -118.254761      -38.079613
 C         -43.939430     -118.839317      -40.660091
 C         -46.114346     -118.304871      -39.367348
 C         -45.177193     -117.973930      -40.569099
 H         -42.295219     -119.370575      -39.460815
 H         -42.835903     -117.519371      -39.449417
 H         -45.840580     -118.668549      -37.133369
 H         -45.357517     -117.171341      -37.973610
 H         -44.161694     -119.831245      -40.923065
 H         -43.344563     -118.478043      -41.520218
 H         -47.006393     -117.709190      -39.268978
 H         -46.476101     -119.434540      -39.604115
 H         -45.837551     -118.093239      -41.427002
 H         -44.902443     -116.904488      -40.477257
