20
 generated by VMD
 C         -13.757073      -42.823978       -5.940568
 N         -12.883142      -43.286991       -6.488383
 H         -15.067951      -45.219486       -8.859611
 H         -14.310260      -43.939537       -9.750793
 C         -15.242781      -44.502674       -9.754938
 C         -16.399998      -43.581924       -9.356910
 C         -15.386437      -45.221767      -11.113704
 C         -16.903587      -42.761059      -10.525947
 C         -15.844573      -44.275856      -12.198073
 C         -17.112507      -43.545506      -11.810916
 H         -16.207678      -42.984718       -8.450289
 H         -17.177536      -44.199699       -8.986795
 H         -14.425858      -45.726192      -11.382686
 H         -16.036283      -46.109669      -11.130341
 H         -16.217258      -41.924877      -10.726672
 H         -17.867447      -42.297970      -10.275922
 H         -16.007521      -44.990211      -13.057341
 H         -15.163592      -43.519127      -12.483985
 H         -17.394163      -42.799789      -12.647511
 H         -17.941364      -44.277054      -11.659365
