20
 generated by VMD
 C         -10.659880      -33.419109       -9.511003
 N         -10.866202      -32.565296       -8.773692
 H         -12.044415      -36.127861       -8.002028
 H         -12.406531      -35.564621       -6.377216
 C         -12.480010      -36.400204       -7.038478
 C         -11.792763      -37.602600       -6.403981
 C         -13.976551      -36.666740       -7.264138
 C         -12.535474      -38.113960       -5.216443
 C         -14.684837      -37.195473       -6.014975
 C         -14.037374      -38.421787       -5.475142
 H         -10.773590      -37.286880       -6.198350
 H         -11.812249      -38.392166       -7.204801
 H         -14.495889      -35.786636       -7.617694
 H         -14.149298      -37.436287       -8.038034
 H         -12.544964      -37.271832       -4.460646
 H         -12.075604      -39.077049       -4.759389
 H         -15.781322      -37.287903       -6.149294
 H         -14.619828      -36.417095       -5.290133
 H         -14.449692      -38.693241       -4.531566
 H         -14.184452      -39.332367       -6.079402
