20
 generated by VMD
 C         -19.993860      -50.109734       -9.551830
 N         -19.731888      -51.211544       -9.636551
 H         -16.887337      -48.412354      -10.119159
 H         -20.205128      -48.886040       -9.121993
 C         -16.721186      -48.462864      -11.147492
 C         -15.609604      -49.367332      -11.635237
 C         -17.449478      -47.458481      -12.026203
 C         -16.151901      -50.019680      -12.864529
 C         -17.901955      -48.169586      -13.268152
 C         -16.785429      -48.990910      -13.859146
 H         -15.210205      -50.069931      -10.878261
 H         -14.775521      -48.697910      -11.809006
 H         -18.271006      -47.068447      -11.462952
 H         -16.808594      -46.621883      -12.190848
 H         -16.984127      -50.725494      -12.610887
 H         -15.388683      -50.647678      -13.378263
 H         -18.310707      -47.374268      -13.996867
 H         -18.722166      -48.822392      -13.102736
 H         -17.211172      -49.570831      -14.711816
 H         -15.936412      -48.324951      -14.232309
