20
 generated by VMD
 C         -48.376392     -135.584885      -46.217503
 N         -47.271599     -135.289276      -46.468395
 H         -51.920776     -134.619629      -45.372948
 H         -49.400345     -135.809555      -45.854610
 C         -51.634647     -135.587494      -45.013771
 C         -52.132782     -136.959793      -45.529926
 C         -51.298077     -135.512527      -43.558670
 C         -51.449749     -138.129898      -44.860367
 C         -50.580757     -136.698761      -43.037724
 C         -51.257915     -138.045120      -43.397949
 H         -52.164028     -136.981781      -46.572201
 H         -53.198734     -137.005066      -45.144493
 H         -50.649891     -134.654419      -43.512482
 H         -52.165810     -135.221512      -42.899071
 H         -50.432217     -138.322220      -45.372295
 H         -52.045654     -139.030243      -45.093052
 H         -50.627041     -136.643433      -41.931744
 H         -49.478619     -136.751099      -43.400059
 H         -50.628887     -138.802383      -43.014172
 H         -52.359501     -137.949951      -42.938786
