20
 generated by VMD
 C         -32.508999      -95.786369      -25.530485
 N         -33.181686      -95.518936      -24.623999
 H         -33.940422      -93.961540      -27.507524
 H         -31.808577      -95.936165      -26.391027
 C         -34.376129      -93.818069      -28.538292
 C         -35.779778      -93.603630      -28.856333
 C         -33.419762      -93.416534      -29.581116
 C         -36.121418      -92.275833      -29.622999
 C         -33.702766      -92.086578      -30.310289
 C         -35.195709      -92.090157      -30.810259
 H         -36.207939      -93.524033      -27.862869
 H         -36.318867      -94.531731      -29.343227
 H         -32.420074      -93.372108      -29.161943
 H         -33.360279      -94.210747      -30.366447
 H         -35.974064      -91.249977      -29.062260
 H         -37.127697      -92.315895      -30.023270
 H         -32.971699      -91.883835      -31.055122
 H         -33.435028      -91.237625      -29.627880
 H         -35.306984      -91.108757      -31.128099
 H         -35.307304      -92.862617      -31.531265
