20
 generated by VMD
 C         -27.909143      -87.575500      -26.916838
 N         -28.021183      -86.855461      -26.047699
 H         -31.207104      -88.773590      -25.659180
 H         -27.998844      -88.237015      -27.743687
 C         -32.255207      -88.653244      -25.939774
 C         -33.423878      -88.808479      -24.975100
 C         -32.627327      -88.652039      -27.419388
 C         -34.452427      -87.750259      -25.367208
 C         -33.611885      -87.599899      -27.723955
 C         -34.819908      -87.834038      -26.827486
 H         -33.067509      -88.677429      -23.910580
 H         -34.011021      -89.801476      -24.788771
 H         -31.841532      -88.485947      -28.161686
 H         -33.001369      -89.658386      -27.631645
 H         -33.988113      -86.706169      -25.282887
 H         -35.487953      -87.783363      -24.898787
 H         -33.826633      -87.726395      -28.828274
 H         -33.161884      -86.600204      -27.505165
 H         -35.598446      -87.148819      -27.102100
 H         -35.294907      -88.768303      -26.960018
