20
 generated by VMD
 C         -70.236618     -181.338089      -62.671761
 N         -70.984810     -180.594086      -63.097870
 H         -67.164330     -181.877777      -60.540745
 H         -69.491417     -182.043716      -62.385128
 C         -66.578270     -180.951157      -60.778919
 C         -65.152443     -180.906219      -60.319729
 C         -67.220200     -179.681656      -60.576435
 C         -64.358345     -179.765411      -60.745930
 C         -66.450912     -178.387726      -60.886700
 C         -64.997940     -178.423615      -60.345627
 H         -64.646095     -181.714798      -60.779964
 H         -65.165359     -181.052490      -59.293400
 H         -68.163300     -179.535477      -61.264328
 H         -67.581024     -179.555603      -59.531605
 H         -64.338692     -179.559784      -61.853481
 H         -63.225174     -179.880539      -60.415836
 H         -66.981194     -177.484314      -60.683445
 H         -66.434509     -178.421387      -61.965214
 H         -64.486198     -177.522888      -60.851482
 H         -65.118851     -178.278564      -59.288544
