20
 generated by VMD
 C         -11.645071      -33.679928       -8.960685
 N         -11.173327      -34.573235       -8.421664
 H         -11.542589      -37.070507       -8.081053
 H         -12.115793      -36.246647       -6.680526
 C         -12.256794      -37.149666       -7.285378
 C         -12.013326      -38.414085       -6.517985
 C         -13.697907      -36.960358       -7.840578
 C         -13.097198      -38.832726       -5.569130
 C         -14.722650      -37.227409       -6.783038
 C         -14.489956      -38.578087       -6.120072
 H         -11.054864      -38.292126       -6.005432
 H         -11.933359      -39.228245       -7.283108
 H         -13.846900      -36.014622       -8.288088
 H         -13.779082      -37.715866       -8.661292
 H         -13.024260      -38.223427       -4.648451
 H         -12.941560      -39.943054       -5.304975
 H         -15.700366      -37.158051       -7.127687
 H         -14.628531      -36.443989       -5.973728
 H         -15.192301      -38.738110       -5.314709
 H         -14.707197      -39.310600       -6.877509
