20
 generated by VMD
 C         -51.046650     -127.691055      -41.149094
 N         -51.603428     -128.519501      -41.719696
 H         -47.545006     -127.797798      -40.445126
 H         -50.810905     -126.955246      -40.380085
 C         -46.622448     -127.161865      -40.705582
 C         -45.309509     -127.670952      -40.113430
 C         -46.809780     -125.772392      -41.321365
 C         -44.100548     -127.015121      -40.819817
 C         -45.464844     -125.269936      -41.893768
 C         -44.302402     -125.523338      -40.969154
 H         -45.101524     -128.681351      -40.189884
 H         -45.179443     -127.319084      -39.066128
 H         -47.529530     -125.598137      -42.041748
 H         -47.076836     -125.201935      -40.480759
 H         -44.065845     -127.427261      -41.818951
 H         -43.276272     -127.302399      -40.193226
 H         -45.370365     -124.208946      -42.129013
 H         -45.214348     -125.769508      -42.831478
 H         -43.333218     -125.137306      -41.425125
 H         -44.351662     -125.042465      -39.974083
