20
 generated by VMD
 C          -9.227705      -24.054562        1.960810
 N          -9.106784      -25.119934        2.307097
 H          -7.555044      -23.416437       -0.877805
 H          -8.913469      -22.749857       -2.030324
 C          -7.821132      -23.037680       -1.892715
 C          -7.582265      -24.210588       -2.819327
 C          -6.922314      -21.858784       -2.255704
 C          -7.660281      -23.781429       -4.238751
 C          -6.959589      -21.446928       -3.684768
 C          -6.684249      -22.635796       -4.559176
 H          -8.339607      -24.925241       -2.499823
 H          -6.571861      -24.625860       -2.593421
 H          -7.157250      -20.975618       -1.617377
 H          -5.882426      -22.037273       -1.954054
 H          -8.662209      -23.430191       -4.542810
 H          -7.491061      -24.663385       -4.813551
 H          -6.270229      -20.610376       -3.921402
 H          -7.945422      -21.007301       -3.807219
 H          -6.663430      -22.447355       -5.637131
 H          -5.681798      -22.922106       -4.390703
