20
 generated by VMD
 C         -79.831825     -206.889923      -75.739929
 N         -80.078072     -207.294006      -74.707352
 H         -77.221794     -207.987183      -73.116890
 H         -79.392334     -206.654343      -76.739357
 C         -76.872620     -208.489655      -72.250877
 C         -75.690117     -208.072784      -71.402336
 C         -77.692795     -209.544708      -71.626526
 C         -76.041832     -207.823776      -69.865501
 C         -78.184235     -209.050186      -70.139809
 C         -77.038536     -208.938889      -69.301979
 H         -75.219322     -207.122849      -71.719101
 H         -74.853004     -208.813538      -71.574722
 H         -78.651657     -209.707520      -72.056328
 H         -77.166985     -210.525635      -71.637466
 H         -76.366890     -206.775467      -69.646431
 H         -75.103584     -207.854202      -69.278191
 H         -78.878868     -209.770325      -69.773178
 H         -78.726494     -208.091660      -70.181267
 H         -77.358376     -208.850601      -68.259598
 H         -76.310875     -209.760452      -69.373978
