20
 generated by VMD
 C         -12.045387      -31.478388       -9.048713
 N         -12.693727      -32.133934       -9.658125
 H         -10.613196      -34.211346       -6.664824
 H         -11.535271      -33.890862       -5.246724
 C         -11.315989      -34.687492       -5.925209
 C         -10.554573      -35.824226       -5.284771
 C         -12.487073      -35.293941       -6.654912
 C         -11.542479      -36.529541       -4.261458
 C         -13.485817      -35.971432       -5.728949
 C         -12.889524      -37.019882       -4.846001
 H          -9.738867      -35.393936       -4.721402
 H         -10.197265      -36.596588       -5.967770
 H         -13.103148      -34.491920       -7.064050
 H         -12.285772      -35.949059       -7.524937
 H         -11.723517      -35.745270       -3.544928
 H         -11.062445      -37.335274       -3.723938
 H         -14.385760      -36.328686       -6.329453
 H         -13.859863      -35.239216       -5.082317
 H         -13.606746      -37.241478       -4.059817
 H         -12.710138      -38.002777       -5.414464
