20
 generated by VMD
 C         -11.475957      -41.805115       -7.005225
 N         -11.853214      -42.357899       -6.091378
 H         -14.900212      -43.304943       -8.261199
 H         -14.893364      -41.855217       -9.166596
 C         -15.333648      -42.867645       -9.104649
 C         -16.857126      -42.672565       -8.962430
 C         -14.836795      -43.733788      -10.340327
 C         -17.547895      -42.475582      -10.265124
 C         -15.578908      -43.392128      -11.606368
 C         -17.046078      -43.508186      -11.301747
 H         -17.094807      -41.912666       -8.216369
 H         -17.234579      -43.577965       -8.585040
 H         -13.758088      -43.540806      -10.519855
 H         -15.090120      -44.754070      -10.059228
 H         -17.357174      -41.482830      -10.679707
 H         -18.628044      -42.669571      -10.134503
 H         -15.360648      -44.150455      -12.412364
 H         -15.287611      -42.430088      -11.947443
 H         -17.602968      -43.384663      -12.271004
 H         -17.380730      -44.469471      -10.890933
