20
 generated by VMD
 C         -68.381065     -185.335266      -66.166473
 N         -69.329376     -185.855850      -66.600861
 H         -69.388947     -183.491730      -64.075172
 H         -67.464935     -184.876953      -65.679527
 C         -69.157234     -183.862900      -63.031048
 C         -70.258942     -184.633682      -62.277138
 C         -67.856369     -183.667542      -62.391773
 C         -69.744682     -186.038376      -61.917427
 C         -67.858948     -184.426346      -61.063545
 C         -68.299347     -185.903244      -61.193699
 H         -71.188454     -184.648743      -62.820251
 H         -70.426674     -184.039047      -61.362930
 H         -67.084442     -184.129837      -62.965004
 H         -67.604309     -182.601852      -62.251240
 H         -69.668739     -186.710861      -62.823826
 H         -70.504578     -186.512741      -61.235275
 H         -68.256584     -183.829788      -60.196793
 H         -66.792419     -184.456192      -60.788231
 H         -67.478317     -186.407318      -61.823963
 H         -68.375336     -186.397385      -60.144913
