20
 generated by VMD
 C         -17.187664      -48.018993       -7.049069
 N         -16.690834      -47.018677       -6.908466
 H         -16.662735      -48.617702      -10.358834
 H         -15.579340      -48.659210      -11.737803
 C         -16.376030      -48.037216      -11.292142
 C         -15.910753      -46.637829      -10.916629
 C         -17.557333      -47.872429      -12.192680
 C         -15.700325      -45.620735      -12.016026
 C         -17.182465      -46.972698      -13.365532
 C         -16.863331      -45.509624      -13.017623
 H         -15.004578      -46.655796      -10.314402
 H         -16.746397      -46.196117      -10.349417
 H         -17.829510      -48.895931      -12.613357
 H         -18.374960      -47.387005      -11.606152
 H         -14.792942      -45.935154      -12.516358
 H         -15.511268      -44.652962      -11.531242
 H         -17.896536      -46.904087      -14.158800
 H         -16.390276      -47.510857      -13.827632
 H         -16.483191      -44.999531      -13.897987
 H         -17.711529      -44.972790      -12.663195
