20
 generated by VMD
 C         -57.672573     -164.282486      -56.668499
 N         -57.270184     -163.366821      -57.190117
 H         -59.760967     -165.138672      -54.492680
 H         -58.042641     -165.189148      -56.181641
 C         -60.848183     -164.826645      -54.580265
 C         -61.785122     -165.518326      -53.640430
 C         -61.336472     -164.468582      -55.879234
 C         -63.280861     -165.004395      -53.657192
 C         -62.805275     -163.759674      -55.860706
 C         -63.702427     -164.810486      -55.154461
 H         -61.322979     -165.765915      -52.646137
 H         -61.817810     -166.520203      -54.062050
 H         -60.732956     -163.946991      -56.587498
 H         -61.550243     -165.497681      -56.367184
 H         -63.357445     -164.102020      -53.006737
 H         -63.835926     -165.849976      -53.253883
 H         -63.035282     -163.498428      -56.908104
 H         -62.593601     -162.763260      -55.356976
 H         -64.701164     -164.548752      -55.243355
 H         -63.627831     -165.726654      -55.650822
