20
 generated by VMD
 C         -70.760742     -181.452545      -64.212151
 N         -70.403725     -182.346848      -63.529583
 H         -68.358192     -181.201477      -61.142879
 H         -71.082832     -180.554504      -64.791199
 C         -67.395523     -180.811722      -60.723354
 C         -66.325264     -181.789505      -60.439278
 C         -67.399231     -179.295044      -60.478386
 C         -64.904640     -181.127502      -60.882668
 C         -65.946815     -178.757568      -60.817680
 C         -64.800903     -179.697189      -60.331726
 H         -66.589554     -182.771896      -60.935535
 H         -66.528252     -181.989700      -59.364166
 H         -68.109825     -178.672531      -61.017841
 H         -67.659447     -179.121140      -59.476818
 H         -64.784386     -181.048523      -61.929268
 H         -64.283897     -181.763977      -60.303730
 H         -65.669724     -177.728668      -60.530190
 H         -65.926582     -178.720657      -61.901230
 H         -63.714249     -179.288391      -60.580479
 H         -64.907700     -179.674332      -59.256824
