20
 generated by VMD
 C         -80.341499     -206.863007      -74.016991
 N         -80.578636     -206.706787      -75.161621
 H         -76.686989     -207.553467      -73.140114
 H         -80.211105     -206.829819      -72.981430
 C         -76.366379     -207.777344      -72.059502
 C         -75.408104     -206.833450      -71.370941
 C         -77.282372     -208.593094      -71.205872
 C         -75.412880     -206.702774      -69.818855
 C         -77.460762     -208.254166      -69.755890
 C         -76.126907     -207.897232      -69.205582
 H         -75.485245     -205.867477      -71.893356
 H         -74.382401     -207.102112      -71.678436
 H         -78.274467     -208.799545      -71.664276
 H         -76.783585     -209.611633      -71.235115
 H         -75.990250     -205.818863      -69.557594
 H         -74.339439     -206.580917      -69.514534
 H         -77.885521     -209.158310      -69.142357
 H         -78.230385     -207.479385      -69.709595
 H         -76.224854     -207.740829      -68.183968
 H         -75.310455     -208.614059      -69.172272
