20
 generated by VMD
 C         -31.651329      -78.582542      -26.360882
 N         -31.185539      -77.963104      -27.206924
 H         -29.509777      -79.637604      -23.714014
 H         -31.927139      -79.353210      -25.577780
 C         -29.027683      -80.692352      -23.708755
 C         -27.635153      -80.787300      -23.298231
 C         -29.844883      -81.813072      -23.594488
 C         -27.641584      -81.046593      -21.804602
 C         -30.007288      -82.064613      -22.042852
 C         -28.497246      -82.241676      -21.499958
 H         -27.050308      -79.896111      -23.614120
 H         -27.195154      -81.632332      -23.892712
 H         -30.898832      -81.608047      -23.909290
 H         -29.534548      -82.611900      -24.210653
 H         -28.076683      -80.195190      -21.165936
 H         -26.668711      -81.251839      -21.425404
 H         -30.442045      -82.940552      -21.773663
 H         -30.534081      -81.161606      -21.672369
 H         -28.525505      -82.406601      -20.393408
 H         -28.027281      -83.053490      -22.109871
