20
 generated by VMD
 C         -21.981579      -55.278183      -17.313883
 N         -22.232559      -55.468742      -18.497627
 H         -21.779108      -56.903358      -14.525766
 H         -21.745239      -54.774063      -16.478518
 C         -21.124269      -57.672329      -14.193957
 C         -20.945223      -58.336929      -12.851792
 C         -20.068096      -57.891033      -15.252621
 C         -20.822174      -59.816948      -13.082967
 C         -20.029701      -59.382793      -15.514101
 C         -19.827236      -60.153984      -14.223294
 H         -21.829525      -58.134819      -12.228604
 H         -20.034319      -57.893742      -12.283749
 H         -20.431087      -57.453556      -16.202366
 H         -19.148201      -57.454159      -14.989376
 H         -21.789804      -60.203320      -13.313123
 H         -20.439569      -60.250648      -12.166448
 H         -19.163527      -59.495232      -16.154945
 H         -20.910273      -59.655304      -16.086039
 H         -19.932621      -61.199631      -14.451923
 H         -18.728733      -60.050808      -13.988398
