20
 generated by VMD
 C          -8.358672      -23.552950        2.195602
 N          -7.823678      -23.843161        3.141638
 H          -8.991316      -23.371950       -1.521804
 H          -9.364832      -22.449005       -2.965864
 C          -8.516302      -22.874935       -2.423008
 C          -7.673067      -23.805544       -3.304820
 C          -7.601373      -21.783779       -1.821381
 C          -7.073049      -23.107628       -4.470463
 C          -6.992927      -21.053568       -2.976512
 C          -6.241276      -21.938860       -3.927762
 H          -8.306719      -24.658077       -3.783266
 H          -6.978893      -24.365322       -2.685733
 H          -8.244317      -21.031040       -1.310175
 H          -6.815977      -22.181137       -1.182440
 H          -7.851921      -22.802708       -5.176760
 H          -6.369200      -23.778580       -5.014106
 H          -6.242215      -20.460571       -2.467456
 H          -7.692954      -20.411444       -3.506189
 H          -5.963835      -21.307880       -4.759900
 H          -5.384254      -22.428408       -3.465378
