20
 generated by VMD
 C         -69.738235     -184.958939      -66.650688
 N         -69.019402     -184.616791      -67.491028
 H         -69.971848     -183.294281      -63.054745
 H         -70.504089     -185.240433      -65.886032
 C         -69.275085     -183.345795      -62.240040
 C         -69.615669     -184.439301      -61.216618
 C         -68.123795     -182.450150      -61.894966
 C         -68.258728     -185.151367      -60.943634
 C         -66.843040     -183.147385      -61.230602
 C         -67.211067     -184.246719      -60.259903
 H         -70.245506     -185.293137      -61.545067
 H         -69.969864     -183.926651      -60.363873
 H         -67.761757     -181.795883      -62.687336
 H         -68.665436     -181.775543      -61.149773
 H         -67.877335     -185.633438      -61.807842
 H         -68.346573     -185.832764      -60.134758
 H         -66.359634     -182.392395      -60.608959
 H         -66.184700     -183.319580      -62.118275
 H         -66.305794     -184.780670      -59.724892
 H         -67.774780     -183.854279      -59.447109
