20
 generated by VMD
 C         -15.058385      -45.746853       -7.094209
 N         -14.590939      -46.711246       -6.803389
 H         -15.578833      -44.117695       -9.009901
 H         -14.482887      -44.252346      -10.485709
 C         -15.539700      -44.316700      -10.082148
 C         -16.456011      -43.350479      -10.816326
 C         -16.056908      -45.806183      -10.304497
 C         -16.641197      -43.838856      -12.254524
 C         -16.297888      -46.356586      -11.740615
 C         -17.184629      -45.243481      -12.382655
 H         -15.958662      -42.380482      -10.857812
 H         -17.470917      -43.277771      -10.363747
 H         -15.376067      -46.455143       -9.816111
 H         -17.039398      -45.887783       -9.832969
 H         -15.649692      -43.759094      -12.676448
 H         -17.314495      -43.120438      -12.741055
 H         -16.829464      -47.257683      -11.694791
 H         -15.391842      -46.552639      -12.357553
 H         -17.439402      -45.515335      -13.415398
 H         -18.236019      -45.292343      -11.895623
