20
 generated by VMD
 C         -28.579115      -88.228447      -25.892317
 N         -28.577152      -87.105293      -26.167461
 H         -31.228676      -89.606323      -26.611826
 H         -28.790802      -89.216820      -25.648838
 C         -32.129932      -89.001289      -26.509315
 C         -33.039436      -88.993828      -25.352865
 C         -32.769245      -88.860466      -27.886854
 C         -34.012985      -87.875137      -25.476730
 C         -33.967140      -87.894974      -28.035131
 C         -34.865349      -87.870155      -26.724493
 H         -32.408092      -88.850304      -24.359228
 H         -33.683739      -89.904160      -25.319630
 H         -32.007824      -88.478081      -28.613413
 H         -33.270035      -89.719635      -28.310488
 H         -33.480484      -86.922859      -25.391455
 H         -34.627995      -87.955864      -24.457802
 H         -34.443214      -88.203285      -28.912056
 H         -33.566048      -86.909363      -28.244240
 H         -35.554569      -87.024979      -26.720926
 H         -35.439209      -88.830231      -26.652920
