20
 generated by VMD
 C         -68.944115     -180.229507      -59.335678
 N         -68.464256     -180.623550      -60.307018
 H         -67.379997     -176.694656      -59.421791
 H         -69.490990     -179.985077      -58.403885
 C         -66.378983     -176.818817      -59.980240
 C         -66.090172     -176.433716      -61.343914
 C         -65.282364     -177.094604      -59.018162
 C         -64.882599     -175.590622      -61.556026
 C         -64.170158     -176.048538      -59.075115
 C         -63.686649     -175.893585      -60.634430
 H         -67.013252     -176.062012      -61.801926
 H         -65.853813     -177.369446      -61.954121
 H         -65.661835     -176.891327      -58.054344
 H         -64.822670     -178.081909      -58.929676
 H         -65.181656     -174.532288      -61.539494
 H         -64.492287     -175.740128      -62.578144
 H         -63.256824     -176.366089      -58.553802
 H         -64.526299     -175.077850      -58.659527
 H         -62.884682     -175.111160      -60.677841
 H         -63.077770     -176.828247      -60.857224
