20
 generated by VMD
 C          -6.963768      -23.338133        2.464753
 N          -7.106472      -22.447269        1.785453
 H          -8.315573      -23.106195       -0.853578
 H          -9.280191      -22.421129       -2.126796
 C          -8.231448      -22.517216       -1.744174
 C          -7.295645      -23.258848       -2.734884
 C          -7.618655      -21.171108       -1.269162
 C          -7.028834      -22.400146       -3.996356
 C          -7.358224      -20.311680       -2.496819
 C          -6.402587      -21.028584       -3.520137
 H          -7.838991      -24.245834       -2.977767
 H          -6.346965      -23.597340       -2.361828
 H          -8.410473      -20.618801       -0.735617
 H          -6.736685      -21.411797       -0.649286
 H          -7.993027      -22.121939       -4.445335
 H          -6.313715      -22.962881       -4.600428
 H          -6.821611      -19.448225       -2.069819
 H          -8.353128      -20.051119       -2.927678
 H          -6.263457      -20.407911       -4.444481
 H          -5.405875      -21.210905       -3.064845
