20
 generated by VMD
 C          -1.027686      -10.701086        0.997173
 N          -1.589596       -9.703284        0.931876
 H          -3.410259      -12.605299        0.713598
 H          -4.330319      -12.025691        2.091419
 C          -4.113221      -12.951241        1.509856
 C          -3.262091      -13.925309        2.345751
 C          -5.335257      -13.570579        0.854590
 C          -4.126772      -14.759391        3.237332
 C          -6.177510      -14.334098        1.917337
 C          -5.345569      -15.413726        2.642459
 H          -2.601265      -13.382740        3.009617
 H          -2.633340      -14.584799        1.722275
 H          -5.914635      -12.763218        0.450253
 H          -4.970586      -14.265220        0.103583
 H          -4.509347      -14.076576        4.053461
 H          -3.535621      -15.449761        3.808815
 H          -7.121953      -14.743400        1.505130
 H          -6.506361      -13.591833        2.701283
 H          -5.869175      -15.986825        3.438646
 H          -5.031074      -16.190237        1.948210
