20
 generated by VMD
 C         -24.945185      -70.824921      -16.749260
 N         -25.193813      -70.864922      -15.625202
 H         -23.981447      -68.634895      -18.591478
 H         -24.701979      -70.750473      -17.891363
 C         -24.502604      -68.745003      -19.543007
 C         -23.821228      -69.491325      -20.692999
 C         -25.917408      -68.137657      -19.615765
 C         -24.803909      -70.515640      -21.425203
 C         -26.775724      -69.134026      -20.463003
 C         -26.127831      -69.823784      -21.701225
 H         -23.119289      -70.191780      -20.206778
 H         -23.451712      -68.876190      -21.466402
 H         -26.377647      -68.253090      -18.649731
 H         -25.925556      -67.140190      -19.746660
 H         -25.061287      -71.352272      -20.779640
 H         -24.385601      -71.016983      -22.306881
 H         -27.571035      -68.487938      -20.744656
 H         -27.168709      -69.899330      -19.840363
 H         -26.925406      -70.498314      -22.025677
 H         -25.930662      -69.053482      -22.447721
