20
 generated by VMD
 C         -63.743031     -174.869629      -56.042507
 N         -62.738914     -175.342392      -56.459991
 H         -66.370506     -173.441528      -58.482929
 H         -64.610405     -174.372223      -55.654064
 C         -65.653908     -172.652649      -58.870899
 C         -65.708755     -171.288467      -58.418407
 C         -64.592018     -172.995132      -59.782459
 C         -64.299171     -170.680450      -58.158623
 C         -63.189835     -172.283081      -59.673332
 C         -63.422920     -170.701736      -59.426167
 H         -66.344002     -171.334808      -57.593914
 H         -66.343521     -170.628036      -59.210503
 H         -64.355751     -174.091370      -59.625710
 H         -64.876640     -173.095871      -60.828377
 H         -63.819851     -171.305161      -57.334385
 H         -64.431747     -169.655731      -57.743900
 H         -62.700172     -172.506653      -60.623394
 H         -62.660946     -172.711227      -58.791084
 H         -62.427574     -170.298111      -59.181988
 H         -63.854053     -170.261185      -60.391972
