20
 generated by VMD
 C         -15.200377      -46.662495       -6.128831
 N         -15.044971      -47.279709       -5.212233
 H         -15.799781      -45.843208       -9.522825
 H         -14.842726      -45.936474      -10.964725
 C         -15.877406      -45.790215      -10.624003
 C         -16.411961      -44.423264      -11.130902
 C         -16.732073      -46.786671      -11.328754
 C         -16.523657      -44.034813      -12.605551
 C         -16.725193      -46.506187      -12.926764
 C         -17.278868      -45.113300      -13.304547
 H         -15.824255      -43.585545      -10.670094
 H         -17.451353      -44.359428      -10.763109
 H         -16.278345      -47.776661      -11.153117
 H         -17.826237      -46.822685      -11.035954
 H         -15.490865      -43.898346      -12.975182
 H         -17.071774      -43.099483      -12.752670
 H         -17.366983      -47.260651      -13.334911
 H         -15.651171      -46.647194      -13.246524
 H         -17.255562      -45.038918      -14.374772
 H         -18.309713      -44.989128      -12.991725
