20
 generated by VMD
 C         -31.655937      -79.037361      -26.497465
 N         -30.961725      -78.150581      -26.698126
 H         -29.017040      -80.443665      -24.991596
 H         -32.355499      -79.818001      -26.041334
 C         -28.838268      -81.269432      -24.239775
 C         -27.689838      -81.275047      -23.394432
 C         -29.852261      -82.345055      -23.972857
 C         -28.026098      -81.261238      -21.833651
 C         -30.285202      -82.317696      -22.484810
 C         -29.160204      -82.219765      -21.422159
 H         -27.002066      -80.416992      -23.480423
 H         -27.005043      -82.136208      -23.514198
 H         -30.765265      -82.244934      -24.476154
 H         -29.386509      -83.259422      -24.386593
 H         -28.332626      -80.281319      -21.542509
 H         -27.021713      -81.418213      -21.263449
 H         -30.904152      -83.202835      -22.200848
 H         -30.899117      -81.482643      -22.311502
 H         -29.616766      -82.043785      -20.445374
 H         -28.673134      -83.165894      -21.376902
