20
 generated by VMD
 C         -21.768604      -66.007492      -16.676981
 N         -20.908037      -66.624802      -16.159758
 H         -24.156233      -64.048904      -18.323801
 H         -22.457788      -65.475822      -17.389057
 C         -24.476562      -65.070877      -18.526144
 C         -24.312040      -65.557465      -19.910322
 C         -25.437433      -65.838974      -17.685804
 C         -24.387407      -67.079056      -20.059280
 C         -25.245617      -67.320992      -17.817179
 C         -25.520594      -67.742516      -19.172449
 H         -23.419807      -65.057137      -20.241209
 H         -25.225569      -65.171524      -20.562960
 H         -25.439590      -65.367065      -16.693758
 H         -26.488289      -65.626709      -17.808983
 H         -23.472137      -67.522461      -19.658018
 H         -24.523373      -67.304970      -21.065392
 H         -25.787989      -67.953659      -17.111942
 H         -24.238554      -67.435211      -17.496084
 H         -25.310846      -68.857780      -19.213125
 H         -26.563456      -67.525078      -19.528809
