20
 generated by VMD
 C         -31.042109      -75.700165      -22.657911
 N         -30.974045      -74.927246      -23.496088
 H         -28.810015      -78.778389      -21.468754
 H         -30.859940      -76.688484      -22.058002
 C         -27.953983      -78.076103      -21.541910
 C         -26.957985      -78.204117      -22.670523
 C         -27.483381      -77.067955      -20.433064
 C         -26.233347      -76.946854      -23.181082
 C         -26.912050      -75.843918      -20.986288
 C         -25.775465      -75.993736      -21.998363
 H         -27.397041      -78.698448      -23.424465
 H         -26.268883      -78.917671      -22.336235
 H         -28.218531      -76.836456      -19.724327
 H         -26.595919      -77.536201      -19.921368
 H         -26.982265      -76.378418      -23.780611
 H         -25.404259      -77.007889      -23.869158
 H         -26.547663      -75.052094      -20.177511
 H         -27.809694      -75.352211      -21.488537
 H         -25.455193      -74.981987      -22.354664
 H         -24.955957      -76.558372      -21.535744
