20
 generated by VMD
 C         -25.097374      -70.980995      -16.904671
 N         -25.250935      -70.898842      -15.755298
 H         -23.838415      -68.274300      -18.916273
 H         -24.975199      -70.966377      -17.949480
 C         -24.512255      -68.924873      -19.446064
 C         -23.801367      -69.653587      -20.601700
 C         -25.875626      -68.312508      -19.762909
 C         -24.914589      -70.505440      -21.276909
 C         -26.846304      -69.232422      -20.511036
 C         -26.108446      -69.791420      -21.774340
 H         -23.004908      -70.385208      -20.300175
 H         -23.282700      -68.773621      -21.223160
 H         -26.221825      -67.972557      -18.761753
 H         -25.724335      -67.404297      -20.462421
 H         -25.165209      -71.306602      -20.485353
 H         -24.508869      -71.136841      -22.047747
 H         -27.832489      -68.772789      -20.822855
 H         -27.047741      -70.114372      -19.816526
 H         -26.811060      -70.416351      -22.342964
 H         -25.827930      -68.884033      -22.275969
