20
 generated by VMD
 C         -61.241314     -155.680481      -54.915276
 N         -60.911755     -155.976791      -53.806034
 H         -59.122971     -155.310989      -51.726330
 H         -61.359779     -155.250931      -55.928383
 C         -58.050694     -155.280380      -51.547146
 C         -57.487591     -154.478287      -50.428596
 C         -57.048790     -155.814240      -52.472839
 C         -56.250645     -155.185715      -49.714306
 C         -55.816555     -156.387711      -51.893654
 C         -55.251461     -155.548386      -50.766510
 H         -58.335545     -154.159485      -49.702095
 H         -57.123230     -153.459564      -50.863277
 H         -57.631096     -156.373581      -53.184341
 H         -56.753815     -154.981720      -53.104336
 H         -56.589497     -156.060532      -49.179714
 H         -55.820980     -154.423035      -49.059242
 H         -55.156811     -156.569916      -52.772976
 H         -55.997513     -157.346909      -51.357056
 H         -54.515671     -156.107452      -50.120258
 H         -54.767315     -154.704163      -51.093510
