20
 generated by VMD
 C         -47.152012     -137.775360      -46.228264
 N         -47.191753     -136.960007      -47.120155
 H         -50.564911     -136.432129      -44.645267
 H         -46.941708     -138.259842      -45.272152
 C         -51.302414     -137.201035      -44.774601
 C         -51.408165     -138.033447      -45.982880
 C         -52.557850     -137.171539      -43.836494
 C         -52.163418     -139.376755      -45.823418
 C         -53.356018     -138.452866      -43.779430
 C         -53.504791     -139.246811      -45.117558
 H         -50.345669     -138.262207      -46.257957
 H         -51.700050     -137.421982      -46.774216
 H         -52.272152     -136.714844      -42.862232
 H         -53.245079     -136.346786      -44.273827
 H         -51.645714     -140.208710      -45.273399
 H         -52.112690     -139.848007      -46.782646
 H         -54.206841     -138.475296      -43.179176
 H         -52.726517     -139.147797      -43.128162
 H         -54.140511     -140.126389      -45.058773
 H         -54.111641     -138.683426      -45.701206
