20
 generated by VMD
 C         -13.591660      -45.292042       -5.783470
 N         -14.352431      -44.899593       -6.486179
 H         -15.208838      -44.362717       -9.054575
 H         -14.454565      -43.880142      -10.577099
 C         -15.398147      -44.236454      -10.156757
 C         -16.529613      -43.205177      -10.307845
 C         -15.703101      -45.661648      -10.752317
 C         -16.863430      -43.245522      -11.748387
 C         -16.185888      -45.652760      -12.185768
 C         -17.323372      -44.650654      -12.204234
 H         -16.286455      -42.159863      -10.078600
 H         -17.278698      -43.430500       -9.600737
 H         -14.868122      -46.351185      -10.587995
 H         -16.509747      -46.069374      -10.119238
 H         -15.989902      -42.924828      -12.350304
 H         -17.674995      -42.563450      -12.015061
 H         -16.599670      -46.671299      -12.446816
 H         -15.442241      -45.500122      -12.907478
 H         -17.766979      -44.614582      -13.253723
 H         -18.120829      -44.919991      -11.472524
