20
 generated by VMD
 C          -1.711816      -13.010349        0.598403
 N          -1.026852      -13.869804        0.829090
 H          -3.702641      -14.701999        1.776006
 H          -4.642768      -14.371464        0.346729
 C          -4.575905      -14.985791        1.216058
 C          -5.865088      -14.749467        2.026186
 C          -4.436056      -16.488623        0.988940
 C          -7.107885      -15.319411        1.312871
 C          -5.656774      -17.072477        0.302470
 C          -6.981426      -16.785822        0.872747
 H          -5.988015      -13.692900        2.181371
 H          -5.612119      -15.119119        3.028206
 H          -3.549800      -16.660484        0.235123
 H          -4.130830      -17.088179        1.958516
 H          -7.285600      -14.758387        0.386974
 H          -8.038732      -15.210259        1.871425
 H          -5.498309      -18.177723        0.204246
 H          -5.625985      -16.743402       -0.732627
 H          -7.801928      -17.187532        0.270682
 H          -7.028557      -17.328846        1.818725
