20
 generated by VMD
 C         -58.527683     -161.559555      -56.235569
 N         -58.243156     -160.388885      -56.271275
 H         -59.596745     -164.863235      -55.393623
 H         -58.794727     -162.615112      -56.271393
 C         -60.332317     -164.338455      -54.765213
 C         -59.732285     -163.546173      -53.620560
 C         -61.815071     -164.444077      -54.821930
 C         -60.493038     -162.265396      -53.292992
 C         -62.248001     -162.952530      -54.792709
 C         -61.998070     -162.266953      -53.469059
 H         -58.808887     -163.143661      -54.088036
 H         -59.708099     -164.172607      -52.675285
 H         -62.069122     -164.814468      -55.773701
 H         -62.215145     -165.070801      -53.984154
 H         -60.042679     -161.382950      -53.870216
 H         -60.131931     -162.056335      -52.288219
 H         -63.287930     -162.949326      -55.098068
 H         -61.716309     -162.299789      -55.626503
 H         -62.432732     -161.315063      -53.319027
 H         -62.465096     -162.858902      -52.669647
