20
 generated by VMD
 C         -38.688137     -113.523094      -35.969017
 N         -37.608707     -113.946861      -35.967365
 H         -41.624664     -115.389931      -35.666279
 H         -39.678635     -113.057549      -36.132973
 C         -42.269985     -114.574104      -35.980576
 C         -42.375340     -114.371849      -37.483471
 C         -43.411079     -114.234207      -35.060448
 C         -43.444286     -115.326477      -37.915863
 C         -44.709530     -114.916260      -35.685966
 C         -44.761101     -114.900696      -37.255070
 H         -41.350151     -114.579208      -37.843956
 H         -42.453743     -113.235977      -37.601856
 H         -43.244083     -114.562759      -34.003952
 H         -43.701561     -113.171440      -35.129818
 H         -43.268745     -116.391144      -37.625854
 H         -43.493690     -115.355438      -39.019615
 H         -45.666023     -114.407333      -35.296822
 H         -44.674923     -116.015381      -35.370094
 H         -45.535538     -115.573044      -37.609539
 H         -45.264763     -113.928513      -37.558495
