20
 generated by VMD
 C         -80.261505     -206.910019      -74.033577
 N         -80.533188     -206.507736      -75.100151
 H         -76.617905     -207.782684      -73.037689
 H         -79.968590     -207.082108      -73.053650
 C         -76.662300     -207.536697      -72.028694
 C         -75.449493     -206.830139      -71.412010
 C         -77.264107     -208.581848      -71.133545
 C         -75.499458     -206.501480      -69.886810
 C         -77.222908     -208.253326      -69.607422
 C         -75.891441     -207.800766      -69.166809
 H         -75.245018     -205.840820      -71.853050
 H         -74.531555     -207.494873      -71.626572
 H         -78.264923     -208.747894      -71.500717
 H         -76.659935     -209.466003      -71.279213
 H         -76.347488     -205.798126      -69.765717
 H         -74.584190     -206.157562      -69.444977
 H         -77.553596     -209.114914      -69.130203
 H         -77.916183     -207.409653      -69.340294
 H         -75.935875     -207.544785      -68.033989
 H         -75.227211     -208.677414      -69.283974
