20
 generated by VMD
 C         -29.841948      -80.070976      -26.437273
 N         -29.945583      -79.017014      -25.933979
 H         -28.706465      -82.796707      -25.739082
 H         -29.969584      -80.953575      -27.130072
 C         -29.283699      -82.808212      -24.872417
 C         -28.837452      -81.927185      -23.712234
 C         -29.906891      -84.145065      -24.381435
 C         -30.011572      -81.822037      -22.658712
 C         -31.116955      -83.795158      -23.478811
 C         -30.686228      -83.031105      -22.248148
 H         -28.559437      -80.839111      -24.008736
 H         -28.016006      -82.339188      -23.126253
 H         -30.252102      -84.549850      -25.350281
 H         -29.232990      -84.746437      -23.834795
 H         -30.760069      -81.131210      -23.039545
 H         -29.610394      -81.281303      -21.715790
 H         -31.663568      -84.761513      -23.195749
 H         -31.838926      -83.182999      -23.962433
 H         -31.667213      -82.804611      -21.798492
 H         -30.014277      -83.602921      -21.676645
