20
 generated by VMD
 C         -22.705603      -68.405724      -16.646490
 N         -22.767807      -69.029297      -15.697016
 H         -24.182438      -65.693459      -18.919407
 H         -22.485647      -67.706635      -17.548340
 C         -24.606834      -66.662270      -19.094995
 C         -23.925350      -67.523338      -20.232954
 C         -26.102333      -66.854591      -18.907520
 C         -24.474052      -68.988266      -20.500761
 C         -26.525707      -68.260826      -19.308487
 C         -26.033295      -68.968491      -20.514227
 H         -22.874224      -67.538521      -20.156969
 H         -24.061867      -66.944725      -21.234333
 H         -26.500008      -66.427193      -18.021921
 H         -26.521896      -66.120377      -19.572680
 H         -24.268726      -69.695839      -19.733784
 H         -24.196218      -69.358704      -21.505075
 H         -27.543442      -68.032532      -19.440729
 H         -26.479641      -68.910645      -18.450890
 H         -26.323217      -70.024567      -20.652454
 H         -26.392370      -68.427025      -21.405029
