20
 generated by VMD
 C         -48.372513     -133.562790      -47.372440
 N         -48.133678     -133.266769      -48.426643
 H         -49.222965     -134.078278      -44.089760
 H         -48.410519     -133.734131      -46.339451
 C         -49.936565     -134.894638      -43.812714
 C         -50.057762     -136.308533      -44.479027
 C         -50.854786     -134.539398      -42.689121
 C         -50.453117     -137.368057      -43.509304
 C         -51.214863     -135.680176      -41.754566
 C         -51.571312     -136.978088      -42.639820
 H         -49.049633     -136.553696      -44.984779
 H         -50.757992     -136.175156      -45.298653
 H         -50.306087     -133.778030      -42.170155
 H         -51.784859     -134.082703      -43.111069
 H         -49.645523     -137.792557      -42.866299
 H         -50.687412     -138.199081      -44.141510
 H         -52.159370     -135.644852      -41.195827
 H         -50.503185     -135.903793      -40.971775
 H         -51.654999     -137.833542      -41.982449
 H         -52.505417     -136.692703      -43.363487
