20
 generated by VMD
 C         -38.688915     -113.740707      -35.618881
 N         -37.967045     -114.639229      -35.718704
 H         -41.204983     -114.492340      -35.981598
 H         -39.221504     -112.850388      -35.774277
 C         -42.243191     -114.530701      -36.320011
 C         -42.483280     -114.592575      -37.796829
 C         -43.461220     -114.336960      -35.383312
 C         -43.704727     -115.468933      -38.193985
 C         -44.631844     -115.325195      -35.769249
 C         -44.883282     -115.253296      -37.254063
 H         -41.595219     -115.014420      -38.202343
 H         -42.651726     -113.558022      -38.099155
 H         -43.306499     -114.409508      -34.320694
 H         -43.854481     -113.312004      -35.434677
 H         -43.599422     -116.592796      -38.135212
 H         -44.020245     -115.234444      -39.254478
 H         -45.462132     -115.062408      -35.129230
 H         -44.444332     -116.346001      -35.595554
 H         -45.636654     -116.022278      -37.596176
 H         -45.234093     -114.123703      -37.495262
