20
 generated by VMD
 C         -69.203773     -185.003448      -66.611275
 N         -69.344460     -185.212341      -67.729187
 H         -69.611488     -183.069901      -63.251110
 H         -69.014458     -184.864288      -65.506691
 C         -69.278427     -183.316223      -62.191357
 C         -69.841400     -184.531693      -61.481865
 C         -68.079506     -182.419067      -61.690369
 C         -68.656517     -185.457108      -61.150707
 C         -66.986084     -183.492233      -61.245819
 C         -67.487007     -184.797394      -60.523720
 H         -70.445473     -185.064194      -62.205296
 H         -70.326447     -184.398209      -60.510532
 H         -67.725006     -181.743759      -62.475845
 H         -68.339203     -181.733246      -60.806301
 H         -68.195107     -185.957733      -61.995090
 H         -69.030113     -186.255005      -60.494461
 H         -66.283615     -182.825912      -60.615639
 H         -66.267784     -183.880508      -61.972866
 H         -66.633606     -185.485840      -60.203754
 H         -67.829430     -184.331192      -59.524620
