20
 generated by VMD
 C         -18.104961      -48.557323       -7.367988
 N         -18.526102      -48.957481       -6.418731
 H         -16.255823      -48.136059      -10.162129
 H         -16.152172      -49.084106      -11.629915
 C         -16.312923      -48.064117      -11.253618
 C         -15.286326      -47.106457      -11.804333
 C         -17.692102      -47.689842      -11.696950
 C         -15.319539      -46.990990      -13.301385
 C         -17.743368      -47.412342      -13.210050
 C         -16.662611      -46.496361      -13.830628
 H         -14.222822      -47.186611      -11.482541
 H         -15.468302      -46.077751      -11.379114
 H         -18.394226      -48.498497      -11.458485
 H         -18.014889      -46.793152      -11.138073
 H         -15.142971      -48.002518      -13.716611
 H         -14.513332      -46.313412      -13.597473
 H         -18.727633      -46.829384      -13.409364
 H         -17.806324      -48.389488      -13.690059
 H         -16.678833      -46.560093      -14.912106
 H         -16.870472      -45.464790      -13.481145
