20
 generated by VMD
 C         -12.006215      -37.460018       -7.414212
 N         -11.059539      -37.848934       -7.838702
 H         -12.428249      -41.007114       -8.386098
 H         -13.427626      -40.306782       -7.204210
 C         -13.451446      -40.810566       -8.153826
 C         -14.203625      -42.148331       -8.086520
 C         -14.092233      -39.879414       -9.282123
 C         -15.742352      -41.970863       -7.821253
 C         -15.625546      -39.693520       -9.149931
 C         -16.372009      -41.032791       -8.913938
 H         -13.746696      -42.781322       -7.331020
 H         -14.160651      -42.615398       -9.091636
 H         -13.575118      -38.940868       -9.328058
 H         -13.848700      -40.465748      -10.199865
 H         -15.831430      -41.546253       -6.799903
 H         -16.254942      -42.930958       -7.908785
 H         -16.079586      -39.214165      -10.058066
 H         -15.739956      -39.028473       -8.305857
 H         -17.348724      -40.778328       -8.568844
 H         -16.481010      -41.588230       -9.843755
