20
 generated by VMD
 C         -61.529362     -155.576233      -53.607494
 N         -61.793392     -155.132172      -54.602345
 H         -58.495766     -154.899643      -51.999664
 H         -61.298790     -156.122665      -52.738949
 C         -57.533623     -155.011719      -51.540508
 C         -57.430508     -154.442307      -50.215923
 C         -56.335648     -155.163788      -52.469807
 C         -56.126060     -154.861511      -49.592064
 C         -55.074627     -155.726929      -51.775143
 C         -54.894722     -154.745285      -50.433453
 H         -58.195747     -154.667587      -49.425026
 H         -57.504475     -153.388947      -50.505936
 H         -56.578373     -155.893570      -53.324429
 H         -56.332760     -154.179367      -52.897629
 H         -56.153522     -155.923309      -49.383053
 H         -55.983742     -154.248764      -48.658783
 H         -54.089249     -155.592865      -52.337368
 H         -55.278564     -156.731918      -51.509907
 H         -54.055725     -155.230286      -49.834106
 H         -54.612728     -153.733307      -50.671646
