20
 generated by VMD
 C         -12.352616      -27.261999       -2.656573
 N         -13.384380      -27.620722       -2.385392
 H         -10.637121      -27.172056       -3.971845
 H          -9.502540      -26.373203       -4.996035
 C          -9.542296      -27.039400       -4.186198
 C          -9.014565      -28.363228       -4.513406
 C          -8.810502      -26.227730       -3.052372
 C          -7.502913      -28.393610       -4.602979
 C          -7.277208      -26.303381       -3.129149
 C          -6.742074      -27.688654       -3.518270
 H          -9.468331      -28.777987       -5.409561
 H          -9.253667      -29.086979       -3.705122
 H          -9.231911      -25.230904       -3.091537
 H          -9.143555      -26.809483       -2.190940
 H          -7.203571      -27.950642       -5.613232
 H          -7.144444      -29.437733       -4.666132
 H          -6.841322      -25.890694       -2.163658
 H          -6.885997      -25.614616       -3.879103
 H          -5.692196      -27.630432       -3.689904
 H          -6.782012      -28.317419       -2.608832
