20
 generated by VMD
 C         -10.418150      -25.360321       -0.797543
 N         -11.287971      -24.685875       -0.555057
 H          -6.570809      -25.395832       -0.941906
 H          -8.282136      -25.337875       -1.339246
 C          -7.262867      -25.160181       -1.778332
 C          -6.999335      -26.036461       -2.984933
 C          -7.015376      -23.706823       -2.032734
 C          -7.899699      -25.497068       -4.120992
 C          -7.866242      -23.187742       -3.138868
 C          -7.648525      -23.985821       -4.436543
 H          -7.324493      -27.066229       -2.766402
 H          -5.964931      -25.992807       -3.264971
 H          -7.192749      -23.144661       -1.138519
 H          -5.916168      -23.611115       -2.277046
 H          -8.930951      -25.651583       -3.927215
 H          -7.591699      -26.057602       -4.988519
 H          -7.595723      -22.140030       -3.402918
 H          -8.933466      -23.226929       -2.856586
 H          -8.440527      -23.672184       -5.105224
 H          -6.601157      -23.677198       -4.761991
