20
 generated by VMD
 C         -19.970083      -59.751038      -17.596254
 N         -19.430323      -58.914795      -18.158766
 H         -23.542730      -59.797634      -15.989506
 H         -20.345881      -60.553219      -17.004251
 C         -22.968292      -60.778645      -15.976154
 C         -23.173540      -61.506863      -17.350239
 C         -22.966021      -61.439560      -14.645766
 C         -22.985249      -63.023285      -17.198215
 C         -22.654062      -62.935120      -14.710934
 C         -23.223179      -63.734428      -15.889039
 H         -22.479176      -61.087147      -18.131870
 H         -24.217184      -61.390873      -17.656984
 H         -22.082840      -60.878002      -14.227277
 H         -23.959488      -61.342865      -14.155753
 H         -21.974005      -63.258408      -17.483671
 H         -23.453743      -63.553249      -18.039560
 H         -23.160460      -63.410465      -13.809557
 H         -21.536947      -63.129414      -14.743298
 H         -22.762215      -64.748672      -15.792756
 H         -24.327198      -63.942657      -15.694875
