20
 generated by VMD
 C         -20.957491      -52.155430      -11.118869
 N         -21.472847      -53.054459      -10.516991
 H         -19.685869      -50.157124      -13.189793
 H         -20.720749      -51.401062      -11.734282
 C         -18.797005      -50.700714      -13.046103
 C         -18.435511      -51.978073      -13.808455
 C         -17.853617      -49.988770      -12.104899
 C         -17.055166      -51.853073      -14.250687
 C         -16.395733      -49.985630      -12.582749
 C         -16.058455      -51.350529      -13.146950
 H         -19.094809      -52.151657      -14.631031
 H         -18.527155      -52.890667      -13.165140
 H         -18.237370      -48.936508      -12.096284
 H         -17.820944      -50.398418      -11.093907
 H         -17.036554      -50.988834      -14.956724
 H         -16.646805      -52.799908      -14.674153
 H         -15.726192      -49.584450      -11.791423
 H         -16.390972      -49.249073      -13.470319
 H         -15.018409      -51.347672      -13.515681
 H         -16.078623      -52.094391      -12.312892
