20
 generated by VMD
 C         -28.011234      -83.216652      -27.367847
 N         -27.260334      -83.427956      -26.535688
 H         -31.293362      -84.361557      -26.403749
 H         -28.819393      -82.923325      -28.091671
 C         -31.664528      -85.139107      -25.848518
 C         -31.549450      -84.999199      -24.370861
 C         -32.119328      -86.377876      -26.396910
 C         -32.565315      -85.835518      -23.488281
 C         -33.343624      -87.029900      -25.568409
 C         -32.970421      -87.223625      -24.120857
 H         -31.841675      -83.899384      -24.193417
 H         -30.581469      -85.065521      -23.847404
 H         -32.566277      -86.120033      -27.356539
 H         -31.236183      -87.043945      -26.662907
 H         -33.584175      -85.404030      -23.474730
 H         -32.208771      -85.927452      -22.517679
 H         -33.656456      -87.849220      -26.113716
 H         -34.192356      -86.316055      -25.613356
 H         -33.581093      -87.761971      -23.481289
 H         -32.026642      -87.686188      -24.050907
