20
 generated by VMD
 C         -40.947124     -102.686089      -34.885815
 N         -41.495022     -102.759087      -35.903332
 H         -39.663250     -104.108719      -32.484287
 H         -40.211311     -102.634239      -34.030945
 C         -38.904503     -104.757057      -32.434391
 C         -37.496178     -104.230202      -32.948193
 C         -38.718204     -106.063095      -31.672575
 C         -36.378185     -104.173882      -31.889952
 C         -37.623726     -105.983688      -30.660118
 C         -36.258118     -105.516098      -31.159502
 H         -37.857685     -103.230194      -33.316967
 H         -37.257595     -104.871353      -33.798779
 H         -39.803173     -106.326096      -31.324919
 H         -38.360401     -106.799103      -32.364140
 H         -36.680084     -103.394585      -31.139431
 H         -35.422157     -103.785294      -32.367558
 H         -37.469383     -106.981720      -30.102289
 H         -37.905060     -105.238579      -29.912626
 H         -35.630493     -105.385399      -30.271223
 H         -35.770756     -106.325089      -31.787661
