20
 generated by VMD
 C         -28.511349      -86.871597      -26.946650
 N         -27.532780      -87.105850      -26.322531
 H         -31.133602      -88.394699      -25.187326
 H         -29.288219      -86.572350      -27.622686
 C         -32.093048      -88.123322      -25.646065
 C         -33.204346      -88.173866      -24.728024
 C         -32.188290      -88.124657      -27.088463
 C         -34.482727      -87.726501      -25.259453
 C         -33.567566      -87.389313      -27.634527
 C         -34.682331      -87.954178      -26.760971
 H         -32.960197      -87.398628      -23.921268
 H         -33.399414      -89.129318      -24.253702
 H         -31.378536      -87.491608      -27.474104
 H         -32.209332      -89.098061      -27.536657
 H         -34.732883      -86.684998      -25.039564
 H         -35.335510      -88.196091      -24.743710
 H         -33.582535      -87.509842      -28.694775
 H         -33.419678      -86.297287      -27.383244
 H         -35.655750      -87.526962      -27.058472
 H         -34.685753      -89.014732      -27.022017
