20
 generated by VMD
 C         -46.762737     -125.068855      -38.236027
 N         -47.395874     -124.659958      -37.377880
 H         -44.840641     -122.352325      -37.618866
 H         -46.077648     -125.155251      -39.029442
 C         -44.706707     -122.208176      -38.709301
 C         -43.608467     -122.607880      -39.495552
 C         -45.850300     -121.484322      -39.344311
 C         -43.805065     -122.970192      -40.964203
 C         -46.181244     -121.997238      -40.771408
 C         -44.871559     -122.259476      -41.674885
 H         -43.135174     -123.500679      -38.863808
 H         -42.881123     -121.800301      -39.529320
 H         -46.682560     -121.565773      -38.696136
 H         -45.560764     -120.373848      -39.382721
 H         -44.184914     -124.096519      -41.018131
 H         -42.990417     -123.047722      -41.686016
 H         -46.745949     -121.262421      -41.363598
 H         -46.779457     -122.941422      -40.716393
 H         -45.076729     -122.812332      -42.623459
 H         -44.478085     -121.289879      -41.922241
