20
 generated by VMD
 C         -59.842728     -152.364502      -51.056564
 N         -60.676239     -153.130157      -51.121326
 H         -56.781631     -152.180420      -48.690166
 H         -59.057228     -151.616669      -51.018166
 C         -55.997173     -151.701752      -49.297462
 C         -54.815285     -152.610367      -49.686050
 C         -55.988850     -150.282944      -49.500061
 C         -53.997589     -152.252472      -51.058090
 C         -55.211521     -149.995453      -50.867977
 C         -53.752720     -150.694016      -50.998436
 H         -55.244247     -153.631317      -49.871941
 H         -54.189499     -152.781281      -48.774769
 H         -56.956493     -149.799698      -49.612606
 H         -55.387222     -149.795792      -48.787960
 H         -54.418694     -152.574142      -52.035408
 H         -53.023472     -152.778931      -51.030167
 H         -54.918850     -148.972610      -50.795181
 H         -55.789558     -150.270401      -51.799320
 H         -53.097691     -150.356552      -51.750320
 H         -53.223618     -150.608429      -49.999771
