20
 generated by VMD
 C         -77.178192     -203.683456      -66.954399
 N         -77.988068     -204.358551      -66.433121
 H         -75.933548     -200.455536      -68.879814
 H         -76.326660     -202.987167      -67.168297
 C         -74.953262     -200.059387      -69.196983
 C         -74.628189     -198.753494      -68.552513
 C         -73.755203     -200.853409      -69.599075
 C         -73.535110     -197.977509      -69.272964
 C         -72.840393     -200.025269      -70.510651
 C         -73.131416     -198.482971      -70.627029
 H         -74.396301     -198.868332      -67.523270
 H         -75.527168     -198.205963      -68.641891
 H         -73.258217     -201.225098      -68.640999
 H         -74.223839     -201.749969      -69.946747
 H         -72.682411     -197.874451      -68.585815
 H         -73.904358     -196.968109      -69.545952
 H         -72.880707     -200.438187      -71.498688
 H         -71.816513     -200.053711      -70.252861
 H         -72.244904     -197.976700      -71.095596
 H         -73.832756     -198.343674      -71.457382
