20
 generated by VMD
 C         -58.454262     -158.998215      -58.047153
 N         -59.131489     -159.240219      -57.201168
 H         -58.976826     -160.332474      -54.741955
 H         -57.770260     -158.772339      -58.814194
 C         -59.402718     -160.949387      -53.946312
 C         -58.568932     -161.205399      -52.694843
 C         -60.763950     -161.647308      -54.109196
 C         -59.479626     -161.208771      -51.504238
 C         -61.523766     -161.860901      -52.822308
 C         -60.702694     -162.153412      -51.617725
 H         -57.879761     -160.339828      -52.625263
 H         -58.085747     -162.177399      -52.801121
 H         -61.457779     -161.134247      -54.735905
 H         -60.650208     -162.683350      -54.650517
 H         -59.754337     -160.243027      -51.250744
 H         -58.741711     -161.499619      -50.703278
 H         -62.144997     -162.723083      -53.021301
 H         -62.271961     -161.120514      -52.670116
 H         -61.219845     -162.073013      -50.755131
 H         -60.212990     -163.093063      -51.742844
