20
 generated by VMD
 C         -11.687020      -31.898619       -8.982642
 N         -12.414993      -32.471420       -9.645831
 H         -11.130436      -34.130566       -6.813147
 H         -11.846169      -33.891624       -5.165225
 C         -11.631385      -34.612972       -5.978656
 C         -10.778450      -35.699741       -5.372395
 C         -12.901773      -35.248337       -6.538187
 C         -11.579485      -36.689156       -4.474634
 C         -13.700059      -36.235809       -5.639936
 C         -12.736975      -37.317657       -5.216840
 H          -9.943374      -35.251190       -4.731012
 H         -10.342717      -36.283978       -6.178944
 H         -13.693895      -34.546722       -6.701298
 H         -12.667515      -35.760040       -7.483078
 H         -11.918384      -36.066422       -3.629800
 H         -10.860729      -37.490276       -4.167723
 H         -14.564875      -36.651211       -6.175327
 H         -14.061243      -35.657276       -4.712917
 H         -13.280186      -38.046120       -4.593434
 H         -12.389441      -37.872482       -6.033644
