20
 generated by VMD
 C         -40.940151     -100.830467      -32.797287
 N         -41.708710     -101.241890      -32.071835
 H         -38.250885     -103.512375      -32.385166
 H         -40.433193     -100.272034      -33.644039
 C         -37.399155     -102.860229      -32.063950
 C         -36.215355     -102.704514      -32.975342
 C         -37.212055     -102.838715      -30.424671
 C         -35.188831     -101.679718      -32.322361
 C         -36.333370     -101.616737      -30.013506
 C         -34.982529     -101.693169      -30.860491
 H         -36.640579     -102.410667      -33.955811
 H         -35.778175     -103.690170      -33.051296
 H         -38.133533     -102.695808      -29.934908
 H         -36.794636     -103.807823      -30.043215
 H         -35.546497     -100.710121      -32.697891
 H         -34.177284     -101.803955      -32.856762
 H         -36.295605     -101.737648      -28.863182
 H         -36.892929     -100.690063      -30.230080
 H         -34.261383     -100.920280      -30.659769
 H         -34.520252     -102.657059      -30.565283
