20
 generated by VMD
 C          -1.518708      -10.641181        0.831570
 N          -0.812807      -10.761186        1.651390
 H          -3.861772      -12.972672        0.137104
 H          -5.023065      -12.433445        1.292454
 C          -4.487732      -13.334867        1.001249
 C          -3.573714      -13.962964        2.098743
 C          -5.463404      -14.365910        0.411976
 C          -4.499509      -14.535652        3.259893
 C          -6.259078      -15.048112        1.504901
 C          -5.471841      -15.529951        2.679466
 H          -2.982959      -13.049860        2.448081
 H          -2.887041      -14.716690        1.596567
 H          -6.190547      -13.880016       -0.247200
 H          -5.044127      -15.093922       -0.252473
 H          -4.940517      -13.625731        3.674710
 H          -3.792284      -14.916250        4.016763
 H          -6.793430      -15.891238        1.065515
 H          -7.079561      -14.350128        1.763817
 H          -6.128473      -15.981996        3.385610
 H          -4.887781      -16.340124        2.280949
