20
 generated by VMD
 C         -48.109356     -125.936821      -38.727745
 N         -48.685745     -126.949203      -38.595188
 H         -46.264557     -123.371841      -38.306545
 H         -47.513813     -125.065826      -39.125916
 C         -45.614910     -123.326355      -39.096081
 C         -44.525730     -124.288712      -39.443611
 C         -45.538170     -122.018867      -39.914310
 C         -44.378986     -124.524483      -41.029827
 C         -45.536392     -122.264465      -41.437897
 C         -44.399406     -123.264099      -41.827415
 H         -44.606792     -125.216881      -38.738457
 H         -43.549316     -123.903915      -39.160744
 H         -46.525169     -121.606758      -39.743374
 H         -44.778030     -121.202621      -39.732124
 H         -45.102196     -125.254715      -41.318340
 H         -43.415951     -124.957207      -41.214352
 H         -45.241455     -121.350746      -41.993237
 H         -46.553692     -122.524673      -41.809891
 H         -44.631142     -123.523537      -42.890774
 H         -43.403511     -122.805962      -41.959145
