20
 generated by VMD
 C         -29.850813      -80.077156      -26.432507
 N         -29.924948      -79.030960      -25.944675
 H         -28.657339      -82.740150      -25.753008
 H         -30.003773      -80.976326      -27.138248
 C         -29.282318      -82.807289      -24.849575
 C         -28.859095      -81.942207      -23.693523
 C         -29.921131      -84.124039      -24.388504
 C         -29.996170      -81.795029      -22.675188
 C         -31.120970      -83.811768      -23.477957
 C         -30.697680      -83.043999      -22.251913
 H         -28.634224      -80.932190      -23.981482
 H         -27.959322      -82.309998      -23.157143
 H         -30.278051      -84.576828      -25.364609
 H         -29.176344      -84.725288      -23.852715
 H         -30.886162      -81.188911      -23.054979
 H         -29.587244      -81.353340      -21.793335
 H         -31.662386      -84.810707      -23.246304
 H         -31.847763      -83.158691      -24.077028
 H         -31.598892      -82.872055      -21.749365
 H         -29.978006      -83.683853      -21.706766
