20
 generated by VMD
 C         -20.408058      -64.168961      -16.445137
 N         -19.823839      -63.368576      -17.073915
 H         -23.816616      -63.080296      -17.413130
 H         -20.732313      -65.113930      -15.944685
 C         -24.012480      -64.153183      -17.676611
 C         -24.500248      -64.373047      -19.019756
 C         -24.216434      -65.262398      -16.692915
 C         -24.720100      -65.802322      -19.501556
 C         -24.769876      -66.665062      -17.154232
 C         -25.571318      -66.638184      -18.483074
 H         -23.837568      -63.840786      -19.781691
 H         -25.353825      -63.657875      -19.102867
 H         -23.352051      -65.451012      -16.153343
 H         -24.870312      -64.850471      -15.923077
 H         -23.701103      -66.226418      -19.580027
 H         -25.107918      -65.841316      -20.513367
 H         -25.336123      -67.117226      -16.336086
 H         -23.995598      -67.405479      -17.330372
 H         -25.401510      -67.673004      -18.851288
 H         -26.589911      -66.321587      -18.394705
