20
 generated by VMD
 C         -60.438755     -172.149109      -55.295826
 N         -59.975086     -173.079468      -54.855835
 H         -62.523220     -170.500534      -56.937305
 H         -61.063194     -171.302902      -55.545261
 C         -63.266182     -169.696915      -57.143192
 C         -62.788807     -168.347885      -57.420269
 C         -64.754425     -169.761230      -57.196537
 C         -63.211338     -167.804825      -58.757404
 C         -65.328041     -169.295166      -58.497475
 C         -64.764282     -167.943924      -58.963863
 H         -61.607925     -168.504044      -57.457283
 H         -62.992249     -167.735809      -56.577740
 H         -64.923637     -170.849823      -56.968822
 H         -65.098991     -169.265060      -56.290253
 H         -62.749226     -168.331787      -59.498608
 H         -62.932137     -166.734497      -58.847919
 H         -66.448982     -169.201813      -58.459370
 H         -65.008766     -169.966766      -59.351875
 H         -64.988968     -167.765625      -60.034046
 H         -65.121246     -166.979279      -58.541214
