20
 generated by VMD
 C         -31.492876      -77.619812      -26.301765
 N         -31.725443      -78.008896      -27.339165
 H         -29.183102      -79.244820      -24.140566
 H         -31.053160      -77.350502      -25.389160
 C         -28.946575      -79.688911      -23.179396
 C         -27.466265      -79.848778      -23.004974
 C         -29.837601      -80.791008      -22.671741
 C         -27.115311      -80.714325      -21.818708
 C         -29.242941      -81.547699      -21.488096
 C         -27.877245      -81.969864      -21.773863
 H         -27.125793      -78.866425      -22.911671
 H         -26.957203      -80.300400      -23.814920
 H         -30.888617      -80.364052      -22.498438
 H         -29.922457      -81.567162      -23.436977
 H         -27.178101      -80.050156      -20.912617
 H         -26.085220      -80.971649      -21.962385
 H         -29.922445      -82.368584      -21.287922
 H         -29.224697      -80.942780      -20.451134
 H         -27.461735      -82.690681      -21.118635
 H         -27.882753      -82.498665      -22.677996
