20
 generated by VMD
 C         -51.312801     -130.031616      -45.028564
 N         -51.745003     -129.312622      -45.891018
 H         -48.364609     -129.848785      -43.372139
 H         -51.117905     -130.745041      -44.251282
 C         -48.030643     -129.941925      -42.296833
 C         -47.879368     -131.303986      -41.706886
 C         -47.426891     -128.847168      -41.579201
 C         -46.550793     -131.628891      -41.030926
 C         -46.023502     -129.114075      -41.048813
 C         -46.063721     -130.421341      -40.196518
 H         -48.215500     -131.991394      -42.449314
 H         -48.593201     -131.315353      -40.835384
 H         -47.428146     -127.976067      -42.289021
 H         -48.117870     -128.580383      -40.856354
 H         -45.902107     -131.843155      -41.924660
 H         -46.682350     -132.411057      -40.220779
 H         -45.839531     -128.212891      -40.424351
 H         -45.282192     -128.986649      -41.889832
 H         -45.063770     -130.524826      -39.776421
 H         -46.625256     -130.306747      -39.224297
