20
 generated by VMD
 C         -76.634109     -203.181091      -66.623421
 N         -77.407021     -203.687363      -65.937729
 H         -75.522057     -200.575989      -68.550049
 H         -76.065041     -202.732391      -67.456833
 C         -74.791000     -199.951141      -69.005890
 C         -74.845856     -198.442520      -68.747292
 C         -73.560173     -200.463364      -69.747871
 C         -73.416321     -197.813461      -68.833130
 C         -73.340317     -199.347992      -70.757034
 C         -72.728821     -198.023743      -70.181465
 H         -75.212761     -198.295776      -67.640770
 H         -75.552742     -197.919571      -69.374527
 H         -72.763870     -200.588867      -68.983269
 H         -73.715492     -201.372833      -70.327347
 H         -72.766861     -198.212784      -68.089378
 H         -73.655052     -196.742874      -68.670456
 H         -74.204369     -199.249222      -71.386200
 H         -72.691154     -199.668869      -71.610748
 H         -71.597839     -198.273270      -70.014137
 H         -72.817665     -197.157913      -70.834778
