20
 generated by VMD
 C         -57.676792     -165.449005      -56.496857
 N         -57.241764     -164.643600      -57.166714
 H         -60.108330     -164.807617      -54.148949
 H         -58.186306     -166.152100      -55.908691
 C         -61.172722     -164.809845      -54.522404
 C         -61.975098     -166.126541      -54.210743
 C         -61.726490     -163.887604      -55.636898
 C         -63.490856     -166.126587      -54.473751
 C         -63.235252     -163.962173      -55.910530
 C         -63.790592     -165.436478      -55.799934
 H         -61.810368     -166.395645      -53.235607
 H         -61.524593     -166.914856      -54.817226
 H         -61.536777     -162.782837      -55.265228
 H         -61.160072     -164.022995      -56.573483
 H         -63.869915     -165.725433      -53.527378
 H         -63.797760     -167.168671      -54.572411
 H         -63.479435     -163.614532      -56.885479
 H         -63.813683     -163.237137      -55.399273
 H         -64.882675     -165.336716      -56.063148
 H         -63.268906     -166.025223      -56.647141
