20
 generated by VMD
 C         -47.886742     -139.715103      -46.076702
 N         -46.799839     -139.398315      -45.935833
 H         -50.994465     -138.836365      -44.728092
 H         -48.897919     -140.069931      -46.267082
 C         -51.842422     -139.195038      -45.304749
 C         -51.931271     -139.424774      -46.796730
 C         -53.205444     -138.849350      -44.607456
 C         -53.063992     -140.395874      -47.177902
 C         -54.230991     -139.970657      -44.942451
 C         -54.384235     -140.101639      -46.523556
 H         -50.984100     -139.842392      -47.191925
 H         -52.149059     -138.392197      -47.176140
 H         -53.044846     -138.975128      -43.518017
 H         -53.508507     -137.860825      -44.968941
 H         -52.864147     -141.432220      -46.880760
 H         -53.243118     -140.470566      -48.282204
 H         -55.254372     -139.848694      -44.642513
 H         -53.826534     -140.913757      -44.445076
 H         -54.996429     -141.138229      -46.611088
 H         -55.007690     -139.225494      -46.835075
