20
 generated by VMD
 C         -69.788116     -183.225449      -65.715508
 N         -70.802650     -182.668961      -65.858261
 H         -68.353928     -183.741760      -62.825180
 H         -68.818687     -183.746872      -65.575630
 C         -67.693069     -183.220520      -62.124626
 C         -67.742126     -183.913101      -60.863369
 C         -67.263611     -181.843018      -62.349430
 C         -66.848717     -183.302032      -59.806526
 C         -66.664520     -181.215195      -61.143372
 C         -67.120209     -181.822357      -59.782497
 H         -67.350838     -184.971344      -60.936924
 H         -68.866127     -184.141907      -60.520332
 H         -66.548210     -181.908264      -63.295174
 H         -68.174805     -181.358292      -62.669785
 H         -65.916550     -183.683746      -59.993092
 H         -67.030586     -183.675858      -58.821579
 H         -66.937134     -180.151535      -61.045181
 H         -65.565666     -181.352097      -61.191448
 H         -66.751564     -181.323990      -58.790146
 H         -68.207130     -181.622467      -59.685905
