20
 generated by VMD
 C         -38.120796     -110.092438      -36.221989
 N         -37.555374     -109.060410      -36.156136
 H         -40.380756     -112.967651      -36.815166
 H         -38.762539     -110.908195      -36.001808
 C         -41.113693     -113.100616      -36.024403
 C         -42.339401     -113.833298      -36.605637
 C         -41.433971     -111.936882      -35.190147
 C         -43.467075     -114.137260      -35.616432
 C         -42.554909     -112.247421      -34.097145
 C         -43.804642     -112.982605      -34.624153
 H         -41.919987     -114.834404      -36.912868
 H         -42.739998     -113.319473      -37.443138
 H         -40.550339     -111.663620      -34.525612
 H         -41.656071     -111.046646      -35.915264
 H         -43.166698     -114.923988      -34.978157
 H         -44.402962     -114.625389      -36.118690
 H         -42.961964     -111.265457      -33.598793
 H         -41.930161     -112.824142      -33.339577
 H         -44.434399     -113.446167      -33.862446
 H         -44.385777     -112.207512      -35.137936
