20
 generated by VMD
 C         -78.971313     -207.363754      -75.296791
 N         -79.891357     -206.968445      -75.809540
 H         -77.778458     -209.266632      -73.342377
 H         -77.990730     -207.530258      -74.868462
 C         -77.732422     -209.099228      -72.316368
 C         -76.345474     -208.494980      -71.805923
 C         -78.293320     -210.276245      -71.451126
 C         -76.567360     -208.133301      -70.317924
 C         -78.157791     -209.979996      -69.968376
 C         -76.836586     -209.440079      -69.506584
 H         -76.362846     -207.562393      -72.399773
 H         -75.455154     -209.096619      -72.066559
 H         -79.355949     -210.281158      -71.696068
 H         -78.030273     -211.337799      -71.568291
 H         -77.465752     -207.437469      -70.209221
 H         -75.704224     -207.606598      -69.823334
 H         -78.225243     -210.928604      -69.505783
 H         -79.126419     -209.449936      -69.676285
 H         -76.882240     -209.142090      -68.468346
 H         -76.206993     -210.287888      -69.630180
