20
 generated by VMD
 C         -38.105698     -109.996628      -36.187626
 N         -37.494137     -108.988937      -36.140335
 H         -40.284077     -113.122887      -36.565643
 H         -38.552475     -110.971848      -36.463177
 C         -41.250004     -113.010735      -36.099785
 C         -42.372646     -113.868332      -36.592030
 C         -41.444904     -111.850601      -35.092102
 C         -43.425808     -114.174919      -35.488422
 C         -42.477871     -112.236519      -34.129684
 C         -43.727200     -112.924606      -34.653061
 H         -42.126736     -114.790222      -37.079830
 H         -42.920681     -113.393562      -37.474693
 H         -40.431953     -111.634636      -34.833752
 H         -41.748936     -111.069252      -35.731178
 H         -42.949631     -114.975258      -34.816010
 H         -44.318272     -114.412766      -35.955425
 H         -42.830601     -111.366142      -33.696724
 H         -42.136261     -112.911766      -33.397690
 H         -44.339916     -113.396156      -33.791298
 H         -44.400127     -112.302589      -35.235119
