20
 generated by VMD
 C         -28.058292      -82.391220      -26.963840
 N         -27.260902      -83.270775      -26.887083
 H         -31.577501      -84.117668      -26.571766
 H         -28.715296      -81.608261      -26.914427
 C         -31.727541      -84.850708      -25.804426
 C         -31.342014      -84.626678      -24.325804
 C         -32.199760      -86.268188      -26.286978
 C         -32.126514      -85.412674      -23.370682
 C         -33.159424      -86.812027      -25.230452
 C         -32.597305      -86.807564      -23.864479
 H         -31.322073      -83.578896      -23.903614
 H         -30.319769      -84.928009      -24.308224
 H         -32.675694      -86.238579      -27.254387
 H         -31.287981      -86.965004      -26.264755
 H         -32.980549      -84.662483      -23.028292
 H         -31.626074      -85.581909      -22.429420
 H         -33.439610      -87.789055      -25.414764
 H         -34.056458      -86.152481      -25.316635
 H         -33.447533      -86.899734      -23.159653
 H         -31.778383      -87.474434      -23.616722
