20
 generated by VMD
 C         -30.795712      -78.110870      -25.892962
 N         -31.844868      -77.618973      -25.982615
 H         -29.327354      -77.859360      -22.732950
 H         -29.805134      -78.633034      -26.052691
 C         -28.890261      -78.841942      -22.884731
 C         -27.470743      -79.060501      -23.300251
 C         -29.665842      -80.047523      -22.541349
 C         -26.708986      -79.868568      -22.180447
 C         -29.067497      -80.820702      -21.395586
 C         -27.458319      -81.047928      -21.569672
 H         -27.061205      -78.147308      -23.577358
 H         -27.359804      -79.626053      -24.198809
 H         -30.663439      -79.731438      -22.195503
 H         -29.770151      -80.824142      -23.358788
 H         -26.532368      -79.081985      -21.446991
 H         -25.776827      -80.250862      -22.510674
 H         -29.593164      -81.840034      -21.237362
 H         -29.283936      -80.348007      -20.339678
 H         -27.019318      -81.300064      -20.565704
 H         -27.239569      -81.900970      -22.212069
