20
 generated by VMD
 C         -12.556523      -27.491476       -2.622307
 N         -13.680045      -27.480080       -2.675765
 H         -10.579759      -27.175694       -3.730945
 H          -9.530206      -26.478458       -4.939229
 C          -9.517667      -27.101122       -4.082852
 C          -8.916922      -28.487549       -4.435910
 C          -8.757799      -26.493319       -2.876763
 C          -7.463246      -28.399920       -4.755257
 C          -7.300379      -26.385519       -3.329446
 C          -6.738868      -27.817007       -3.536083
 H          -9.379280      -28.893021       -5.342044
 H          -9.191800      -29.163040       -3.617231
 H          -9.199235      -25.496706       -2.735319
 H          -8.844096      -27.183409       -1.987436
 H          -7.187397      -27.888865       -5.719227
 H          -7.095831      -29.403242       -4.908954
 H          -6.702746      -25.895117       -2.490462
 H          -7.119175      -25.755287       -4.207965
 H          -5.678782      -27.773867       -3.677515
 H          -6.826031      -28.403109       -2.599590
