20
 generated by VMD
 C          -1.917615       -8.581296        0.374296
 N          -2.097158       -9.140516       -0.576549
 H          -2.888139      -10.128955        2.601028
 H          -1.983758      -11.167552        3.685916
 C          -2.903225      -11.105832        3.060449
 C          -2.914546      -12.171208        1.995257
 C          -4.093287      -11.158341        3.994491
 C          -3.249760      -13.541771        2.578866
 C          -4.325611      -12.562881        4.598184
 C          -4.518351      -13.472060        3.419591
 H          -2.007363      -12.193110        1.368727
 H          -3.734482      -11.927050        1.322285
 H          -3.945943      -10.364201        4.718722
 H          -4.894218      -10.799150        3.440586
 H          -2.437741      -14.019849        3.115924
 H          -3.528291      -14.164280        1.737014
 H          -5.236019      -12.479695        5.236540
 H          -3.496848      -12.932155        5.218661
 H          -4.969918      -14.464797        3.735082
 H          -5.302831      -13.096954        2.696284
