20
 generated by VMD
 C         -68.959602     -184.726089      -66.372154
 N         -69.524712     -185.447922      -67.099319
 H         -69.647102     -183.053452      -63.519424
 H         -68.296982     -184.071289      -65.743523
 C         -69.192879     -183.530075      -62.626060
 C         -69.829163     -184.675934      -62.027130
 C         -68.077026     -182.735504      -61.878769
 C         -68.876579     -185.618210      -61.241158
 C         -67.065056     -183.798584      -61.263226
 C         -67.736069     -184.953217      -60.584229
 H         -70.288200     -185.365280      -62.784763
 H         -70.691322     -184.447189      -61.384113
 H         -67.596565     -182.034073      -62.537098
 H         -68.580429     -182.060257      -61.071217
 H         -68.424232     -186.382782      -61.821346
 H         -69.468094     -186.148727      -60.508305
 H         -66.605949     -183.163376      -60.525543
 H         -66.309074     -184.222488      -61.890862
 H         -67.049446     -185.825989      -60.165947
 H         -68.286407     -184.526642      -59.751308
