20
 generated by VMD
 C         -29.931118      -74.028214      -20.609163
 N         -29.951595      -75.130028      -20.310383
 H         -27.040813      -74.438614      -19.245737
 H         -30.059437      -72.917656      -20.959648
 C         -26.560093      -74.207344      -20.174324
 C         -26.043995      -75.463104      -20.920689
 C         -26.044125      -72.872223      -20.409948
 C         -25.974463      -75.064079      -22.451590
 C         -25.950348      -72.650337      -21.825016
 C         -25.359133      -73.764885      -22.668369
 H         -26.840534      -76.383202      -20.789021
 H         -25.030329      -75.754433      -20.586308
 H         -26.789652      -72.197495      -19.881226
 H         -25.011412      -72.835510      -19.840500
 H         -27.006201      -75.048012      -22.757351
 H         -25.462627      -75.803467      -23.074896
 H         -25.378393      -71.630569      -21.983479
 H         -26.924416      -72.401939      -22.319468
 H         -25.343113      -73.402817      -23.665277
 H         -24.367720      -73.979866      -22.293018
