20
 generated by VMD
 C         -68.309372     -188.129913      -66.629936
 N         -68.745079     -189.108170      -67.045807
 H         -68.383446     -187.077393      -63.536476
 H         -67.798470     -187.296219      -66.132896
 C         -69.334114     -187.620178      -63.567539
 C         -69.382111     -189.142426      -63.307362
 C         -70.455162     -186.750931      -63.228626
 C         -70.808868     -189.691147      -63.720058
 C         -71.708862     -187.285095      -63.821838
 C         -72.017159     -188.699280      -63.308517
 H         -68.946167     -189.277023      -62.264996
 H         -68.742546     -189.788300      -64.018333
 H         -70.511826     -186.695282      -62.117729
 H         -70.234978     -185.821777      -63.694550
 H         -70.946266     -190.663239      -63.284653
 H         -70.874390     -189.904617      -64.836555
 H         -71.634636     -187.175903      -64.929207
 H         -72.572624     -186.664398      -63.583344
 H         -72.034019     -188.828278      -62.234692
 H         -73.032806     -189.289597      -63.503937
