20
 generated by VMD
 C         -10.412527      -39.747070       -6.772385
 N         -11.232713      -40.140522       -6.106540
 H         -13.651913      -40.520882       -8.933042
 H         -15.166862      -39.941223       -9.548896
 C         -14.643442      -40.829971       -9.334221
 C         -15.285118      -41.623268       -8.178047
 C         -14.700036      -41.657436      -10.660755
 C         -16.743183      -42.038864       -8.472312
 C         -16.168589      -42.059200      -10.950323
 C         -16.829197      -42.876431       -9.818184
 H         -15.334263      -41.059807       -7.209740
 H         -14.698696      -42.524712       -7.916970
 H         -14.234005      -41.040218      -11.466453
 H         -14.063624      -42.589272      -10.680024
 H         -17.393173      -41.155231       -8.454271
 H         -17.220032      -42.589252       -7.597467
 H         -16.157944      -42.680885      -11.879148
 H         -16.709585      -41.122421      -11.103377
 H         -17.873837      -43.010120      -10.082281
 H         -16.254114      -43.789703       -9.685302
