20
 generated by VMD
 C         -78.677467     -209.986649      -76.568649
 N         -77.638046     -210.258545      -77.093407
 H         -79.700218     -211.736694      -74.428642
 H         -79.605934     -209.861511      -76.128677
 C         -79.538612     -212.267029      -73.451622
 C         -78.206688     -212.364441      -72.784645
 C         -80.707001     -213.140457      -73.128784
 C         -78.369553     -212.760040      -71.347313
 C         -80.781548     -213.411407      -71.623505
 C         -79.395279     -213.851974      -71.129913
 H         -77.601212     -211.416092      -72.863014
 H         -77.575233     -213.089142      -73.374794
 H         -81.608505     -212.602386      -73.364548
 H         -80.559578     -214.122986      -73.749054
 H         -78.604347     -211.805466      -70.876686
 H         -77.435150     -213.063141      -70.899910
 H         -81.573280     -214.122620      -71.370827
 H         -81.024734     -212.449890      -71.095169
 H         -79.508446     -213.929626      -70.012192
 H         -79.050827     -214.762222      -71.590950
