20
 generated by VMD
 C         -51.195454     -127.686478      -41.180824
 N         -51.670116     -128.573257      -41.780071
 H         -47.453415     -127.840790      -40.478661
 H         -50.673122     -126.856995      -40.742001
 C         -46.646755     -127.193954      -40.646263
 C         -45.283401     -127.594742      -40.149857
 C         -46.695663     -125.863144      -41.256020
 C         -44.047184     -127.082558      -40.865948
 C         -45.446888     -125.284927      -41.954617
 C         -44.307896     -125.561600      -40.948284
 H         -45.368370     -128.716919      -40.153221
 H         -45.332752     -127.413528      -39.043495
 H         -47.606186     -126.071991      -41.926483
 H         -46.868999     -125.173889      -40.472965
 H         -43.901104     -127.564796      -41.809986
 H         -43.151527     -127.202881      -40.256725
 H         -45.752060     -124.294281      -42.052704
 H         -45.417439     -125.761284      -42.925930
 H         -43.419685     -125.026802      -41.222443
 H         -44.631508     -125.151787      -39.953568
