20
 generated by VMD
 C         -11.208174      -38.871525       -6.616115
 N         -11.954312      -38.551914       -7.402020
 H         -12.734497      -41.545319       -9.056902
 H         -13.656927      -40.271164       -8.346892
 C         -13.732770      -41.185284       -8.839119
 C         -14.501569      -42.224762       -8.081324
 C         -14.372503      -40.869827      -10.214684
 C         -15.899274      -41.716057       -7.827350
 C         -15.840154      -40.540638      -10.067991
 C         -16.599335      -41.502861       -9.181856
 H         -14.001379      -42.493530       -7.107985
 H         -14.554999      -43.223377       -8.510856
 H         -13.878432      -40.055096      -10.852264
 H         -14.315296      -41.719471      -10.897262
 H         -15.951103      -40.828983       -7.176143
 H         -16.439192      -42.479942       -7.190123
 H         -16.240021      -40.473755      -11.034142
 H         -15.808330      -39.526947       -9.547483
 H         -17.581633      -41.079910       -8.935532
 H         -16.653913      -42.440289       -9.702314
