20
 generated by VMD
 C         -63.202095     -172.959229      -55.459007
 N         -62.829266     -173.872696      -54.922207
 H         -61.653831     -171.707687      -58.142406
 H         -63.447510     -172.026245      -55.981220
 C         -62.540985     -171.082184      -58.286320
 C         -62.445747     -169.633408      -58.102802
 C         -63.652851     -171.551483      -59.167892
 C         -63.696632     -168.721573      -58.240417
 C         -64.946228     -170.661743      -59.338203
 C         -65.039589     -169.494461      -58.307968
 H         -61.668869     -169.197800      -58.923279
 H         -62.008865     -169.493866      -57.186222
 H         -63.265179     -171.607315      -60.188969
 H         -63.840248     -172.519669      -58.583370
 H         -63.648010     -168.150986      -59.153866
 H         -63.672264     -167.949768      -57.468327
 H         -65.974739     -171.179901      -59.397305
 H         -64.884285     -170.078751      -60.328732
 H         -65.784111     -168.757294      -58.617279
 H         -65.390663     -169.934418      -57.366463
