20
 generated by VMD
 C         -57.976330     -161.912231      -56.245754
 N         -57.157265     -162.048080      -57.012863
 H         -59.510403     -164.321014      -55.434525
 H         -58.688766     -161.803314      -55.458115
 C         -60.409149     -164.454147      -54.879547
 C         -60.448696     -164.083633      -53.444744
 C         -61.749687     -164.579147      -55.588467
 C         -61.652481     -163.099777      -53.039921
 C         -62.789032     -163.389801      -55.349236
 C         -63.031532     -163.450165      -53.772633
 H         -59.542812     -163.525146      -53.158253
 H         -60.622566     -164.982590      -52.700821
 H         -61.709785     -164.759842      -56.646858
 H         -62.174660     -165.415375      -55.042492
 H         -61.306988     -162.059540      -53.366631
 H         -61.768967     -163.094925      -51.922981
 H         -63.745216     -163.554642      -55.870613
 H         -62.258884     -162.361908      -55.522419
 H         -63.909191     -162.696335      -53.448479
 H         -63.431004     -164.463486      -53.391087
