20
 generated by VMD
 C          -1.796225      -13.824084        1.047674
 N          -1.798013      -12.831873        1.565917
 H          -3.744735      -17.189606        1.613898
 H          -4.122143      -16.976065       -0.129123
 C          -4.527801      -17.057495        0.875104
 C          -5.139723      -15.686980        1.206631
 C          -5.566627      -18.222391        0.949508
 C          -6.366353      -15.401909        0.305939
 C          -6.709181      -17.842661        0.039746
 C          -7.329988      -16.537741        0.362220
 H          -4.368234      -14.928782        1.027129
 H          -5.401062      -15.516845        2.282045
 H          -5.188118      -19.101606        0.513458
 H          -5.913583      -18.258327        1.950053
 H          -5.923031      -15.382898       -0.686134
 H          -6.854958      -14.421823        0.432796
 H          -7.500808      -18.584787       -0.003913
 H          -6.243915      -17.775814       -0.993206
 H          -8.240403      -16.448921       -0.249286
 H          -7.710879      -16.612011        1.388268
