20
 generated by VMD
 C         -13.911215      -45.503841       -5.637542
 N         -14.348585      -45.368374       -6.642289
 H         -15.013731      -44.272999       -9.199664
 H         -14.499738      -43.913380      -10.907937
 C         -15.330452      -44.225502      -10.273971
 C         -16.473450      -43.174706      -10.497013
 C         -15.847064      -45.616585      -10.607119
 C         -16.972727      -43.398724      -11.931948
 C         -16.202734      -45.850048      -12.071747
 C         -17.296350      -44.844345      -12.357888
 H         -16.073555      -42.183418      -10.286648
 H         -17.299273      -43.318615       -9.850623
 H         -15.146199      -46.412102      -10.330063
 H         -16.751701      -45.744774      -10.004888
 H         -16.309870      -42.994461      -12.725631
 H         -17.912437      -42.854275      -12.075289
 H         -16.619287      -46.891850      -12.117692
 H         -15.375197      -45.890675      -12.712894
 H         -17.748180      -44.776279      -13.394561
 H         -18.118570      -45.156624      -11.684133
