20
 generated by VMD
 C         -68.366722     -185.360657      -67.486855
 N         -67.631058     -185.277908      -66.606033
 H         -69.180504     -186.930191      -64.825035
 H         -69.031197     -185.444733      -68.350319
 C         -69.649719     -186.826309      -63.816563
 C         -70.292397     -185.535751      -63.359543
 C         -69.610413     -188.060394      -62.914604
 C         -70.024704     -185.224136      -61.888103
 C         -69.212509     -187.677383      -61.560879
 C         -69.986702     -186.549225      -61.061695
 H         -71.418732     -185.789902      -63.408791
 H         -70.161819     -184.604919      -63.963501
 H         -70.627731     -188.545792      -63.083870
 H         -68.890091     -188.767776      -63.358253
 H         -70.677429     -184.432938      -61.401745
 H         -69.028030     -184.838745      -61.908504
 H         -68.115234     -187.476822      -61.652107
 H         -69.193146     -188.524155      -60.813145
 H         -71.169373     -186.609711      -60.795319
 H         -69.564682     -186.316986      -60.052883
