20
 generated by VMD
 C         -68.335335     -189.438187      -67.215714
 N         -67.236443     -189.172119      -67.060493
 H         -68.641106     -188.493500      -63.880260
 H         -69.432632     -189.627472      -67.205330
 C         -69.650742     -188.556335      -63.492588
 C         -70.344620     -189.930191      -63.516228
 C         -70.508865     -187.290512      -63.008831
 C         -71.554245     -189.714371      -64.383247
 C         -71.892960     -187.266968      -63.556698
 C         -72.451370     -188.698105      -63.674519
 H         -70.559708     -190.107574      -62.479046
 H         -69.762955     -190.708252      -64.043083
 H         -70.488647     -187.221039      -61.921734
 H         -69.869537     -186.324890      -63.167027
 H         -72.159134     -190.678635      -64.496964
 H         -71.301033     -189.304642      -65.339264
 H         -71.917336     -186.911179      -64.592148
 H         -72.572670     -186.477753      -63.024605
 H         -72.628967     -189.052353      -62.699738
 H         -73.305634     -188.762741      -64.410431
