20
 generated by VMD
 C         -80.215019     -205.487198      -71.833298
 N         -79.752373     -206.588028      -71.781181
 H         -77.081917     -203.621964      -70.551300
 H         -80.516922     -204.502289      -72.139786
 C         -76.299919     -204.254379      -70.924271
 C         -75.018539     -203.592880      -71.217964
 C         -76.315956     -205.685593      -70.582092
 C         -74.333488     -203.472122      -69.946167
 C         -75.412544     -205.891968      -69.392204
 C         -74.255386     -204.891129      -69.272858
 H         -75.160568     -202.624847      -71.689499
 H         -74.359528     -204.225739      -71.905426
 H         -77.283600     -206.057785      -70.396683
 H         -75.873482     -206.264267      -71.415901
 H         -74.798790     -202.846268      -69.169868
 H         -73.321335     -203.033752      -70.088821
 H         -75.170151     -206.951279      -69.369125
 H         -75.977890     -205.753571      -68.427299
 H         -73.923958     -204.683807      -68.275185
 H         -73.396034     -205.331650      -69.881477
