20
 generated by VMD
 C         -79.128418     -206.712280      -75.385750
 N         -79.207687     -207.130585      -76.475044
 H         -78.926643     -209.716019      -72.856140
 H         -79.146858     -206.299957      -74.356224
 C         -78.129738     -209.929779      -72.157921
 C         -76.770538     -209.200104      -72.118874
 C         -78.330750     -211.084961      -71.153931
 C         -76.945229     -208.440384      -70.777847
 C         -78.165901     -210.410233      -69.836029
 C         -77.084373     -209.509628      -69.584236
 H         -76.719261     -208.475189      -72.929787
 H         -75.859627     -209.821350      -72.096962
 H         -79.343880     -211.490341      -71.420540
 H         -77.644112     -211.928497      -71.210457
 H         -77.658760     -207.603241      -70.941177
 H         -75.954163     -207.960663      -70.656593
 H         -78.052490     -211.068176      -69.029037
 H         -79.164436     -209.937943      -69.561142
 H         -77.123978     -208.854156      -68.683456
 H         -76.199242     -210.120911      -69.443321
