20
 generated by VMD
 C         -64.785904     -175.397476      -55.837429
 N         -64.070335     -176.026779      -56.532864
 H         -65.511269     -174.359222      -58.982773
 H         -65.540787     -174.896790      -55.205605
 C         -64.948730     -173.366501      -59.013004
 C         -65.312500     -172.195038      -58.255856
 C         -64.002411     -173.347794      -60.073681
 C         -64.423912     -170.910141      -58.366013
 C         -63.111134     -172.101517      -60.111309
 C         -63.911137     -170.740158      -59.830330
 H         -65.255333     -172.631500      -57.172188
 H         -66.372467     -172.000015      -58.570625
 H         -63.391102     -174.170898      -60.025791
 H         -64.618317     -173.285126      -60.934528
 H         -63.597404     -170.938263      -57.633656
 H         -65.019577     -170.036575      -58.040848
 H         -62.695625     -171.998199      -61.152294
 H         -62.324650     -172.310760      -59.409710
 H         -63.153065     -169.886612      -59.963078
 H         -64.696747     -170.559647      -60.579716
