20
 generated by VMD
 C         -52.580082     -146.895020      -45.383984
 N         -52.961128     -147.368347      -44.423271
 H         -55.031010     -147.095917      -48.314407
 H         -52.181515     -146.350113      -46.180351
 C         -54.577671     -146.144806      -48.495735
 C         -53.279697     -145.991653      -49.183342
 C         -55.205566     -144.844009      -48.007607
 C         -53.351448     -144.884171      -50.266003
 C         -55.286789     -143.725479      -49.137264
 C         -53.901264     -143.569550      -49.715111
 H         -53.206989     -146.900208      -49.808022
 H         -52.428566     -145.908432      -48.466373
 H         -56.190327     -145.041245      -47.643990
 H         -54.475391     -144.522781      -47.211132
 H         -53.966267     -145.262115      -51.091263
 H         -52.342316     -144.492279      -50.488617
 H         -55.518185     -142.836029      -48.541527
 H         -56.236897     -143.954803      -49.731468
 H         -53.806919     -142.846161      -50.531506
 H         -53.179615     -143.242416      -48.886326
