20
 generated by VMD
 C         -19.724760      -63.965481      -16.452888
 N         -20.037590      -63.113472      -17.160503
 H         -23.557880      -63.283718      -17.217777
 H         -19.574326      -64.822426      -15.880136
 C         -24.038616      -64.142670      -17.588177
 C         -24.429226      -64.166336      -18.976625
 C         -24.397362      -65.219780      -16.567249
 C         -24.670059      -65.717072      -19.376471
 C         -24.785456      -66.611374      -17.156681
 C         -25.556620      -66.543213      -18.432095
 H         -23.599327      -63.886261      -19.677225
 H         -25.401302      -63.634079      -19.054190
 H         -23.519299      -65.436989      -15.947043
 H         -25.202997      -64.791687      -15.904788
 H         -23.759525      -66.284973      -19.476593
 H         -25.187881      -65.829514      -20.304958
 H         -25.325375      -67.118912      -16.359615
 H         -23.857189      -67.131958      -17.425222
 H         -25.963600      -67.541580      -18.744394
 H         -26.478785      -65.962563      -18.371424
