20
 generated by VMD
 C         -20.476152      -52.261799       -9.715901
 N         -21.190096      -51.802322      -10.485675
 H         -18.527021      -49.459805      -10.796416
 H         -20.138685      -52.866055       -8.766933
 C         -17.873861      -49.602379      -11.689878
 C         -17.356897      -50.966099      -12.085365
 C         -17.161543      -48.392647      -12.232066
 C         -16.744316      -51.116493      -13.543353
 C         -16.921181      -48.578907      -13.728301
 C         -16.067715      -49.819454      -13.893979
 H         -18.173466      -51.666313      -12.157510
 H         -16.730820      -51.397110      -11.263276
 H         -17.721716      -47.507652      -11.975331
 H         -16.182045      -48.331703      -11.778879
 H         -17.530281      -51.268036      -14.293036
 H         -16.152800      -51.998657      -13.544999
 H         -16.433805      -47.708324      -14.196158
 H         -17.844463      -48.721615      -14.200377
 H         -15.746594      -49.778214      -14.951348
 H         -15.178383      -49.721973      -13.232714
