20
 generated by VMD
 C         -79.894897     -205.385666      -71.304726
 N         -80.174843     -206.524872      -71.491653
 H         -77.189346     -203.020309      -70.606140
 H         -79.573601     -204.418335      -71.093964
 C         -76.209435     -203.319427      -70.330917
 C         -75.128693     -202.290955      -70.296936
 C         -75.915916     -204.805145      -70.071205
 C         -73.890572     -203.126160      -70.695198
 C         -74.761948     -205.027863      -69.188004
 C         -73.607986     -204.036942      -69.490021
 H         -75.019791     -201.816391      -69.331184
 H         -75.368408     -201.468979      -71.041122
 H         -76.781380     -205.474625      -69.682945
 H         -75.673882     -205.139252      -71.157883
 H         -73.029961     -202.465042      -70.660995
 H         -73.932991     -203.549042      -71.690910
 H         -74.371964     -205.976807      -69.273270
 H         -75.138054     -204.870987      -68.137756
 H         -73.499725     -203.359467      -68.695930
 H         -72.686844     -204.577881      -69.518608
