20
 generated by VMD
 C         -24.298079      -69.933029      -16.612486
 N         -24.488634      -70.336479      -15.515917
 H         -23.434273      -67.342056      -19.088022
 H         -24.042536      -69.531754      -17.512569
 C         -24.317625      -67.913773      -19.492643
 C         -23.941416      -68.574936      -20.748230
 C         -25.813616      -67.608498      -19.431553
 C         -24.627199      -69.904541      -21.127165
 C         -26.642973      -68.942070      -19.880600
 C         -26.178543      -69.574852      -21.189989
 H         -22.849289      -68.724426      -20.556019
 H         -23.969193      -67.963394      -21.601522
 H         -26.035355      -67.499908      -18.404219
 H         -25.996580      -66.819389      -20.161427
 H         -24.612408      -70.635895      -20.315163
 H         -24.219879      -70.378883      -22.062181
 H         -27.718615      -68.580521      -19.907150
 H         -26.694481      -69.669128      -18.956646
 H         -26.761108      -70.496902      -21.341002
 H         -26.183485      -68.849190      -21.997116
