20
 generated by VMD
 C          -1.900650      -13.997371        2.251814
 N          -1.723457      -14.921774        1.643042
 H          -3.711088      -16.760427        0.650437
 H          -4.627087      -17.140373       -0.850790
 C          -4.735945      -16.894562        0.210724
 C          -5.599797      -15.652074        0.318503
 C          -5.412967      -18.091198        0.873662
 C          -6.859296      -15.903893       -0.453197
 C          -6.729382      -18.383011        0.208020
 C          -7.629348      -17.171188        0.089003
 H          -5.089479      -14.780138       -0.022998
 H          -5.745036      -15.496279        1.423989
 H          -4.690526      -18.954145        0.806646
 H          -5.635341      -17.936337        1.995496
 H          -6.803565      -15.990035       -1.521443
 H          -7.510948      -15.010180       -0.347683
 H          -7.193254      -19.150255        0.769472
 H          -6.611023      -18.805107       -0.797705
 H          -8.400973      -17.353313       -0.688634
 H          -8.191263      -16.978710        1.006526
