20
 generated by VMD
 C         -38.563034     -108.107079      -36.798615
 N         -37.998577     -108.811882      -37.503296
 H         -41.514488     -109.212318      -35.911045
 H         -39.300926     -107.572342      -36.175678
 C         -41.354469     -109.867760      -35.123650
 C         -40.492714     -111.102287      -35.408142
 C         -42.453232     -109.760544      -34.025196
 C         -40.294506     -111.879066      -34.072041
 C         -42.161751     -110.760406      -32.879784
 C         -41.566833     -112.085052      -33.224453
 H         -39.481129     -110.966339      -35.698551
 H         -40.900795     -111.799088      -36.177864
 H         -42.617775     -108.734474      -33.619690
 H         -43.471146     -110.005577      -34.401749
 H         -39.578526     -111.304626      -33.551792
 H         -39.725636     -112.845970      -34.258373
 H         -43.076210     -111.033363      -32.304485
 H         -41.464912     -110.135300      -32.163963
 H         -41.200787     -112.528214      -32.249969
 H         -42.302074     -112.649063      -33.712532
