20
 generated by VMD
 C         -54.460442     -148.178375      -45.358109
 N         -54.502636     -148.340347      -44.184124
 H         -54.496143     -147.912064      -48.539307
 H         -54.356937     -148.145401      -46.469849
 C         -54.328194     -147.024506      -49.084034
 C         -53.219551     -146.829178      -50.105999
 C         -55.078129     -145.855347      -48.491245
 C         -53.361073     -145.446472      -50.785980
 C         -55.101547     -144.576752      -49.276867
 C         -53.788361     -144.258438      -49.952549
 H         -53.155960     -147.755646      -50.776470
 H         -52.371449     -146.647110      -49.498623
 H         -56.133045     -146.323471      -48.424057
 H         -54.710472     -145.750977      -47.465870
 H         -54.123421     -145.715469      -51.508839
 H         -52.397594     -145.322144      -51.383511
 H         -55.478096     -143.770538      -48.755650
 H         -55.856041     -144.680832      -50.155914
 H         -54.006004     -143.521606      -50.695015
 H         -53.105972     -143.910553      -49.172077
