20
 generated by VMD
 C         -53.096649     -146.803085      -44.815414
 N         -51.927315     -147.030060      -44.607231
 H         -54.767559     -146.487045      -47.916439
 H         -54.097164     -146.723434      -45.167103
 C         -54.166599     -145.620834      -48.081097
 C         -53.075142     -145.517593      -49.094742
 C         -54.973831     -144.400467      -47.754581
 C         -53.432755     -144.666718      -50.306419
 C         -55.346722     -143.525345      -49.035065
 C         -54.065479     -143.265594      -49.883312
 H         -52.748409     -146.478897      -49.410694
 H         -52.184288     -145.110031      -48.552567
 H         -55.863804     -144.805313      -47.347042
 H         -54.350021     -143.854935      -47.041935
 H         -53.995392     -145.281677      -50.982140
 H         -52.580051     -144.426773      -50.812572
 H         -55.678955     -142.597229      -48.802032
 H         -56.127975     -144.012482      -49.682957
 H         -54.244339     -142.704834      -50.756504
 H         -53.416378     -142.683609      -49.219734
