20
 generated by VMD
 C         -49.943539     -142.789856      -45.397751
 N         -48.813896     -143.109650      -45.275043
 H         -51.812580     -139.717758      -45.541817
 H         -50.952141     -142.359467      -45.399658
 C         -52.559074     -140.092224      -46.290348
 C         -52.260017     -140.370468      -47.774872
 C         -54.064060     -140.302277      -45.911461
 C         -52.760838     -141.801544      -48.258175
 C         -54.450806     -141.732574      -46.303207
 C         -54.283550     -142.020798      -47.778389
 H         -51.204391     -140.367203      -47.837708
 H         -52.718559     -139.532455      -48.344784
 H         -54.449001     -140.278091      -44.890137
 H         -54.704945     -139.559067      -46.498528
 H         -52.131199     -142.533493      -47.877296
 H         -52.819305     -141.703827      -49.287949
 H         -55.501690     -141.997299      -46.131134
 H         -53.865746     -142.385635      -45.595028
 H         -54.590626     -143.031372      -47.911301
 H         -54.851437     -141.305618      -48.277943
