20
 generated by VMD
 C         -68.640305     -185.379623      -66.978035
 N         -67.682587     -184.739609      -66.876106
 H         -68.898697     -188.276917      -64.643494
 H         -69.546715     -185.941208      -67.035072
 C         -69.447754     -187.822388      -63.803398
 C         -69.495560     -186.277603      -63.802639
 C         -70.240128     -188.609833      -62.825089
 C         -69.592346     -185.617126      -62.406483
 C         -70.144257     -188.018448      -61.443241
 C         -70.448776     -186.459381      -61.426723
 H         -70.321426     -185.964188      -64.536407
 H         -68.511345     -185.951248      -64.348854
 H         -71.322357     -188.659225      -63.113422
 H         -69.927284     -189.666153      -62.875675
 H         -69.886566     -184.566101      -62.506241
 H         -68.603294     -185.654907      -61.935986
 H         -69.080505     -188.204193      -61.147446
 H         -70.878738     -188.562180      -60.733673
 H         -71.486649     -186.388290      -61.805294
 H         -70.113609     -185.978806      -60.603355
