20
 generated by VMD
 C         -59.350067     -151.977844      -49.291531
 N         -58.770817     -152.274155      -50.192451
 H         -56.365345     -150.863998      -48.330799
 H         -59.859085     -151.803879      -48.347324
 C         -55.707294     -150.456451      -49.163692
 C         -54.789627     -151.416534      -49.677155
 C         -55.370884     -149.031052      -49.283413
 C         -54.299496     -150.984619      -51.067238
 C         -54.826462     -148.568787      -50.593029
 C         -53.687950     -149.482590      -50.982365
 H         -55.207893     -152.467209      -49.750389
 H         -54.033092     -151.352676      -48.927025
 H         -56.279804     -148.449493      -49.099468
 H         -54.730862     -148.699097      -48.395264
 H         -55.202808     -150.891403      -51.682335
 H         -53.501812     -151.613052      -51.526882
 H         -54.448658     -147.588028      -50.306721
 H         -55.611671     -148.337143      -51.336605
 H         -53.242462     -149.125488      -51.832516
 H         -52.824909     -149.480164      -50.237484
