20
 generated by VMD
 C         -55.609009     -148.916122      -45.461887
 N         -54.976742     -149.424652      -44.589134
 H         -54.168427     -148.074677      -48.135044
 H         -56.308155     -148.560898      -46.197117
 C         -54.247700     -147.316940      -48.928890
 C         -53.216080     -147.180176      -49.986870
 C         -54.970352     -145.990158      -48.564896
 C         -53.438499     -146.138962      -51.086208
 C         -55.180458     -145.042114      -49.726299
 C         -53.889893     -144.820160      -50.522663
 H         -53.200794     -148.194656      -50.319866
 H         -52.253342     -147.011444      -49.557522
 H         -56.003586     -146.168533      -48.064507
 H         -54.279308     -145.473160      -47.809349
 H         -54.090866     -146.534256      -51.903160
 H         -52.455845     -145.943085      -51.518311
 H         -55.612473     -144.062668      -49.450394
 H         -55.872749     -145.617645      -50.448448
 H         -54.013710     -144.389877      -51.501801
 H         -53.039642     -144.449539      -49.889584
