20
 generated by VMD
 C         -58.190838     -166.745255      -56.071571
 N         -57.991570     -167.462891      -55.148140
 H         -60.779125     -165.821732      -54.889500
 H         -58.432636     -166.078995      -56.891006
 C         -61.528889     -165.728333      -55.650764
 C         -61.916042     -166.823990      -56.587013
 C         -62.499817     -164.588913      -55.593525
 C         -63.352081     -167.307220      -56.464298
 C         -64.004692     -165.072128      -55.504841
 C         -64.321999     -166.105560      -56.648510
 H         -61.286530     -167.636932      -56.374790
 H         -61.810112     -166.523865      -57.701576
 H         -62.274113     -164.095474      -54.562965
 H         -62.408150     -163.850967      -56.364120
 H         -63.484779     -167.689117      -55.453789
 H         -63.593716     -168.102737      -57.190754
 H         -64.565536     -164.167358      -55.493763
 H         -64.031372     -165.556000      -54.616722
 H         -65.366707     -166.334274      -56.667439
 H         -64.156342     -165.527451      -57.568794
