20
 generated by VMD
 C         -20.496038      -64.509804      -17.115911
 N         -19.814705      -64.630432      -16.193914
 H         -23.536608      -63.693394      -17.792406
 H         -21.145651      -64.121948      -17.998999
 C         -24.212875      -64.524780      -17.963728
 C         -24.890064      -64.742714      -19.277042
 C         -24.920113      -65.262665      -16.906263
 C         -24.718193      -66.148071      -19.739639
 C         -24.952681      -66.735641      -17.266447
 C         -25.192551      -67.155334      -18.759829
 H         -24.488682      -63.951950      -19.943686
 H         -25.936277      -64.716553      -19.141020
 H         -24.496344      -65.072899      -15.917714
 H         -25.846064      -64.864708      -16.705738
 H         -23.669794      -66.212166      -19.925249
 H         -25.236843      -66.178932      -20.679199
 H         -25.614830      -67.261406      -16.590271
 H         -23.962488      -67.096123      -17.024719
 H         -24.550653      -68.019325      -18.959270
 H         -26.150038      -67.537514      -18.886826
