20
 generated by VMD
 C         -50.684837     -129.113403      -42.748585
 N         -50.645020     -128.200577      -42.039265
 H         -48.376225     -127.594498      -39.987297
 H         -50.848438     -130.037247      -43.289623
 C         -47.391941     -127.559082      -40.550591
 C         -46.227524     -128.410355      -40.212223
 C         -47.123032     -126.278091      -41.176414
 C         -44.883980     -128.211853      -40.994576
 C         -45.855015     -126.198799      -42.032188
 C         -44.628735     -126.724075      -41.250069
 H         -46.595520     -129.481995      -40.284595
 H         -46.095249     -128.309387      -39.153534
 H         -47.972908     -126.086685      -41.882504
 H         -47.141075     -125.633057      -40.374329
 H         -45.160725     -128.664948      -41.975433
 H         -44.168022     -128.615311      -40.242435
 H         -45.801189     -125.108238      -42.143887
 H         -46.018600     -126.661957      -43.046940
 H         -43.786427     -126.480705      -41.851784
 H         -44.596634     -126.140625      -40.322853
