20
 generated by VMD
 C         -68.687775     -186.349594      -67.811821
 N         -68.192131     -187.357330      -67.524208
 H         -68.242836     -187.265137      -64.420380
 H         -69.141640     -185.413834      -68.256088
 C         -69.097092     -187.579620      -63.770714
 C         -68.898354     -187.361160      -62.195133
 C         -70.465149     -187.476791      -64.284081
 C         -69.981880     -188.240509      -61.420731
 C         -71.616486     -187.934067      -63.389584
 C         -71.362473     -187.896591      -61.909466
 H         -69.017952     -186.419586      -61.783127
 H         -67.861740     -187.530045      -61.964722
 H         -70.612740     -186.374863      -64.522339
 H         -70.477264     -187.947510      -65.255531
 H         -69.967834     -187.929733      -60.353146
 H         -69.693115     -189.276718      -61.488991
 H         -71.984848     -188.916122      -63.532249
 H         -72.539093     -187.470535      -63.693134
 H         -71.609741     -186.875717      -61.520988
 H         -72.336578     -188.472916      -61.493061
