20
 generated by VMD
 C         -16.878536      -47.845741       -7.197990
 N         -16.459326      -46.822174       -7.121398
 H         -16.741060      -48.541050      -10.368933
 H         -15.489762      -48.240379      -11.605976
 C         -16.419180      -47.888538      -11.164875
 C         -16.181805      -46.443726      -10.664417
 C         -17.427006      -47.889427      -12.260697
 C         -15.741788      -45.575340      -11.804794
 C         -17.194118      -46.889946      -13.378109
 C         -16.794266      -45.485203      -12.855295
 H         -15.338822      -46.496269       -9.973875
 H         -17.039209      -46.061127      -10.084579
 H         -17.570364      -48.886414      -12.639426
 H         -18.397743      -47.727283      -11.806687
 H         -14.769047      -45.944847      -12.188684
 H         -15.461599      -44.573204      -11.442739
 H         -18.064560      -46.650745      -14.095345
 H         -16.391623      -47.347885      -13.993571
 H         -16.474150      -44.866699      -13.713569
 H         -17.751104      -44.923187      -12.551250
