20
 generated by VMD
 C         -11.125656      -34.685596       -9.122751
 N         -10.676682      -35.350521       -8.313586
 H         -12.259289      -37.123863       -7.601003
 H         -13.274241      -37.135014       -6.067848
 C         -13.070685      -37.637264       -7.066377
 C         -12.609053      -39.055454       -6.682620
 C         -14.284451      -37.593552       -7.969551
 C         -13.750947      -39.909573       -6.224687
 C         -15.354978      -38.550823       -7.582104
 C         -14.878483      -40.012917       -7.301664
 H         -11.840734      -39.035858       -5.875802
 H         -12.200056      -39.486053       -7.640288
 H         -14.707084      -36.591232       -7.998899
 H         -13.898986      -37.910309       -9.021676
 H         -14.158704      -39.462997       -5.299585
 H         -13.361270      -40.982422       -6.032660
 H         -16.128042      -38.502377       -8.279545
 H         -15.818699      -38.202164       -6.603310
 H         -15.729280      -40.557060       -6.931631
 H         -14.491428      -40.571136       -8.179668
