20
 generated by VMD
 C         -58.575806     -152.076569      -49.099476
 N         -59.547340     -152.175751      -49.805683
 H         -55.974033     -150.200546      -47.885422
 H         -57.690460     -152.137146      -48.408733
 C         -55.416584     -149.935654      -48.838718
 C         -54.520611     -150.867584      -49.590496
 C         -55.104053     -148.453369      -49.050056
 C         -54.214657     -150.499802      -51.057220
 C         -54.728996     -148.159821      -50.543034
 C         -53.682423     -149.136108      -51.110779
 H         -54.849850     -151.885391      -49.407978
 H         -53.462685     -150.925446      -49.011597
 H         -56.073612     -147.879608      -48.941494
 H         -54.289314     -148.036865      -48.488811
 H         -55.049168     -150.584122      -51.789845
 H         -53.476578     -151.234467      -51.334766
 H         -54.229927     -147.240524      -50.601395
 H         -55.767784     -148.404755      -51.111927
 H         -53.495411     -148.928711      -52.188702
 H         -52.826130     -149.070679      -50.502716
