20
 generated by VMD
 C         -19.500496      -60.873753      -17.513233
 N         -20.064863      -59.852184      -17.734941
 H         -22.483252      -60.315151      -16.350723
 H         -18.822334      -61.596672      -17.324390
 C         -22.972454      -61.251259      -16.328341
 C         -23.361742      -61.790962      -17.607485
 C         -23.603321      -61.840652      -15.039862
 C         -22.914379      -63.267933      -17.553812
 C         -23.233274      -63.362522      -14.970306
 C         -23.385368      -64.067558      -16.316959
 H         -22.664162      -61.436798      -18.420897
 H         -24.497538      -61.664738      -17.904963
 H         -23.221695      -61.388332      -14.096690
 H         -24.716433      -61.743954      -15.117622
 H         -21.845074      -63.263756      -17.362339
 H         -23.039028      -63.763435      -18.467752
 H         -23.673397      -63.874897      -14.103706
 H         -22.150932      -63.436577      -14.718433
 H         -22.717571      -64.958603      -16.402048
 H         -24.446398      -64.436005      -16.468317
