20
 generated by VMD
 C         -23.315456      -53.361622      -14.279766
 N         -24.173210      -53.243977      -14.989975
 H         -20.526913      -55.379501      -15.244328
 H         -22.710680      -53.632366      -13.364481
 C         -19.601725      -55.493771      -14.571614
 C         -19.292799      -54.228981      -13.683537
 C         -18.457817      -56.358883      -14.873901
 C         -18.118183      -54.447033      -12.714684
 C         -17.771326      -56.853191      -13.611387
 C         -17.211256      -55.611851      -12.937088
 H         -20.144249      -53.909389      -13.111088
 H         -19.136463      -53.353893      -14.289174
 H         -18.916883      -57.204266      -15.427505
 H         -17.800623      -55.861191      -15.500500
 H         -18.496038      -54.584850      -11.658576
 H         -17.528658      -53.521671      -12.590998
 H         -16.926168      -57.577881      -13.827260
 H         -18.452513      -57.311672      -12.919392
 H         -16.557110      -55.828125      -12.085474
 H         -16.466110      -55.232704      -13.618329
