20
 generated by VMD
 C          -1.954382      -17.693653        2.105350
 N          -1.632151      -17.085508        2.983773
 H          -5.265470      -17.479923        0.977445
 H          -5.114655      -18.818110       -0.194157
 C          -5.806691      -18.000210        0.154654
 C          -6.129906      -16.989418       -0.972270
 C          -7.031330      -18.864595        0.555698
 C          -6.915096      -17.704741       -2.154694
 C          -7.756366      -19.436209       -0.657177
 C          -8.151285      -18.378698       -1.654540
 H          -5.245638      -16.493927       -1.300822
 H          -6.817192      -16.178307       -0.660332
 H          -6.776566      -19.600090        1.285659
 H          -7.704165      -18.320812        1.201178
 H          -6.237436      -18.352274       -2.720956
 H          -7.185514      -16.946672       -2.934277
 H          -8.674613      -19.951609       -0.346365
 H          -7.112419      -20.276339       -1.088238
 H          -8.698618      -18.795887       -2.530830
 H          -8.808758      -17.649126       -1.177254
