20
 generated by VMD
 C         -29.990072      -79.298965      -25.939753
 N         -30.907204      -78.621254      -26.036263
 H         -29.063728      -82.761650      -25.786123
 H         -29.141748      -79.893654      -25.490303
 C         -28.912516      -82.914436      -24.657492
 C         -28.279345      -81.949722      -23.733042
 C         -29.883541      -83.942604      -24.137630
 C         -29.310764      -81.273758      -22.780001
 C         -30.960251      -83.211845      -23.219915
 C         -30.260820      -82.313553      -22.103527
 H         -27.753143      -81.197662      -24.302782
 H         -27.523354      -82.385452      -23.163591
 H         -30.277740      -84.643051      -24.989391
 H         -29.361706      -84.629280      -23.459179
 H         -29.923323      -80.502586      -23.246836
 H         -28.887003      -80.793480      -21.946983
 H         -31.685814      -83.990456      -22.692102
 H         -31.599722      -82.557777      -23.831976
 H         -30.977365      -81.823296      -21.302515
 H         -29.509193      -82.837418      -21.370598
