20
 generated by VMD
 C         -46.277298     -124.275948      -35.831627
 N         -46.835461     -125.216370      -35.549229
 H         -44.641312     -121.931396      -38.057407
 H         -45.912956     -123.372261      -36.297451
 C         -44.587482     -121.597557      -39.043606
 C         -43.228992     -121.420578      -39.768608
 C         -45.690800     -120.743530      -39.551861
 C         -43.515427     -121.658264      -41.294003
 C         -45.916069     -120.926613      -41.071606
 C         -44.609558     -120.865044      -41.869308
 H         -42.361061     -122.114685      -39.535862
 H         -42.919415     -120.428947      -39.599510
 H         -46.663773     -120.797989      -39.011570
 H         -45.229866     -119.764793      -39.300331
 H         -43.735344     -122.717010      -41.412422
 H         -42.622330     -121.680550      -41.915672
 H         -46.625614     -120.264099      -41.418137
 H         -46.218948     -121.951271      -41.217407
 H         -44.820896     -121.053185      -42.920090
 H         -44.319256     -119.804634      -41.812046
