20
 generated by VMD
 C         -68.038055     -192.842545      -66.327591
 N         -68.685730     -193.040848      -67.297546
 H         -69.905731     -189.931274      -65.332291
 H         -67.542908     -192.719345      -65.318390
 C         -70.951950     -190.186890      -65.261009
 C         -71.558548     -190.946747      -66.390129
 C         -71.567169     -190.274033      -63.837650
 C         -72.560478     -192.020065      -65.894356
 C         -73.136261     -190.422379      -63.962994
 C         -73.578255     -191.556549      -64.977318
 H         -70.839493     -191.324005      -67.046242
 H         -72.037758     -190.110672      -67.067955
 H         -71.076263     -191.129120      -63.354927
 H         -71.205154     -189.391769      -63.180862
 H         -71.870705     -192.707840      -65.404579
 H         -73.058723     -192.529297      -66.759232
 H         -73.558006     -189.431900      -64.341537
 H         -73.627663     -190.528885      -62.996223
 H         -73.912003     -192.445114      -64.304001
 H         -74.365128     -191.244736      -65.549347
