20
 generated by VMD
 C         -23.879414      -69.621658      -16.871567
 N         -24.277691      -69.962807      -15.831139
 H         -23.909477      -66.770340      -18.806536
 H         -23.740753      -69.277039      -17.988106
 C         -24.336437      -67.633789      -19.376915
 C         -23.720711      -68.469154      -20.467569
 C         -25.928759      -67.549370      -19.335180
 C         -24.603466      -69.674767      -20.827248
 C         -26.712925      -68.928703      -19.683182
 C         -26.184711      -69.359650      -20.967587
 H         -22.687189      -68.851585      -20.277266
 H         -23.736729      -67.755096      -21.443193
 H         -26.275331      -67.125519      -18.389660
 H         -26.273708      -66.953094      -20.120573
 H         -24.471945      -70.497383      -20.054804
 H         -24.325396      -70.196434      -21.789804
 H         -27.757679      -68.566750      -19.851650
 H         -26.502813      -69.622253      -18.839815
 H         -26.628742      -70.285667      -21.374104
 H         -26.376938      -68.669952      -21.795410
