20
 generated by VMD
 C         -22.028290      -55.141335      -17.360168
 N         -22.308180      -55.459614      -18.463652
 H         -21.241716      -56.607246      -13.819565
 H         -21.611420      -55.407085      -16.252958
 C         -21.020481      -57.586281      -14.174874
 C         -20.942543      -58.305866      -12.943386
 C         -20.080923      -57.891361      -15.268922
 C         -20.838076      -59.802589      -13.125506
 C         -19.964596      -59.377480      -15.472682
 C         -19.788448      -60.136559      -14.134520
 H         -21.761496      -58.008232      -12.248358
 H         -20.030600      -57.976746      -12.456236
 H         -20.378969      -57.312538      -16.186682
 H         -19.090923      -57.487110      -14.933593
 H         -21.830309      -60.272560      -13.349947
 H         -20.551962      -60.246540      -12.181505
 H         -19.166367      -59.625633      -16.211115
 H         -20.908850      -59.738060      -15.845372
 H         -19.783081      -61.217804      -14.339493
 H         -18.877815      -59.839397      -13.696894
