20
 generated by VMD
 C         -49.543842     -141.592545      -45.809177
 N         -49.424057     -142.089478      -44.763206
 H         -51.307617     -138.862045      -46.404861
 H         -49.672016     -141.181458      -46.816841
 C         -52.300976     -139.393890      -46.482395
 C         -52.853573     -139.428925      -47.805786
 C         -53.010277     -140.109726      -45.336666
 C         -53.147182     -140.926498      -48.083088
 C         -53.084423     -141.558517      -45.671875
 C         -53.826660     -141.658539      -47.003422
 H         -52.193268     -138.987152      -48.610321
 H         -53.827663     -138.941330      -47.915985
 H         -52.390724     -139.948776      -44.478851
 H         -53.918190     -139.611588      -45.039165
 H         -52.332550     -141.591354      -48.092415
 H         -53.654846     -140.944748      -49.060917
 H         -53.522224     -142.213852      -44.928761
 H         -52.070827     -141.845200      -45.629745
 H         -53.947121     -142.802216      -47.290840
 H         -54.910892     -141.346817      -46.776295
