20
 generated by VMD
 C         -80.086052     -205.499695      -72.207085
 N         -80.005585     -206.694824      -72.217934
 H         -77.341682     -204.230530      -70.859032
 H         -80.342224     -204.458496      -72.168564
 C         -76.496147     -204.821945      -71.238625
 C         -75.165222     -204.036301      -71.323334
 C         -76.288292     -206.288849      -70.616776
 C         -74.656754     -203.916458      -69.901955
 C         -75.582573     -206.062561      -69.285286
 C         -74.273460     -205.239166      -69.226395
 H         -75.351608     -203.057205      -71.806427
 H         -74.496399     -204.565445      -71.947899
 H         -77.307129     -206.722641      -70.522522
 H         -75.712151     -206.822372      -71.359818
 H         -75.447586     -203.337967      -69.356293
 H         -73.886589     -203.123398      -69.947021
 H         -75.312820     -207.132004      -68.882942
 H         -76.296249     -205.666794      -68.583199
 H         -73.714172     -205.043106      -68.268562
 H         -73.603920     -205.846725      -69.792267
