20
 generated by VMD
 C          -1.248626      -12.314556        1.403047
 N          -0.833706      -12.633062        0.392309
 H          -4.059101      -12.942808        0.952888
 H          -5.698551      -13.155161        0.658682
 C          -4.853716      -13.644917        1.130476
 C          -5.109185      -14.003720        2.592496
 C          -4.587523      -14.951569        0.258456
 C          -6.268075      -14.995393        2.783838
 C          -5.644515      -16.024183        0.497006
 C          -5.952597      -16.271852        1.984039
 H          -5.464791      -13.014767        2.999346
 H          -4.174439      -14.418983        2.988867
 H          -4.427074      -14.660380       -0.736048
 H          -3.658855      -15.355078        0.607765
 H          -7.199449      -14.523823        2.441010
 H          -6.339285      -15.202594        3.885865
 H          -5.263491      -17.017241        0.119719
 H          -6.594908      -15.806601       -0.032615
 H          -6.752181      -16.979349        2.061296
 H          -5.089985      -16.746515        2.424268
