20
 generated by VMD
 C         -47.985462     -139.874481      -46.049179
 N         -46.846951     -139.631424      -45.780941
 H         -51.055382     -138.769897      -45.022022
 H         -48.929359     -140.366928      -46.277996
 C         -51.950012     -139.129578      -45.531090
 C         -52.053566     -139.386078      -46.961952
 C         -53.172935     -139.146851      -44.550980
 C         -53.064816     -140.595352      -47.239620
 C         -54.253025     -140.080734      -44.994801
 C         -54.428791     -140.175446      -46.581684
 H         -51.074177     -139.680557      -47.285862
 H         -52.264282     -138.496048      -47.618015
 H         -52.796856     -139.188385      -43.531555
 H         -53.628395     -138.158081      -44.470764
 H         -52.684196     -141.575104      -46.892948
 H         -53.085339     -140.555283      -48.367157
 H         -55.251873     -139.788757      -44.574795
 H         -53.967342     -141.063507      -44.603722
 H         -55.242504     -140.887650      -47.065399
 H         -54.617561     -139.195084      -47.080246
