20
 generated by VMD
 C         -13.051025      -27.811451       -2.652782
 N         -13.941461      -27.286362       -3.084439
 H         -10.588056      -27.520884       -3.705784
 H          -9.454331      -26.689737       -4.761055
 C          -9.490026      -27.346626       -3.917554
 C          -8.879786      -28.695789       -4.321317
 C          -8.723366      -26.735949       -2.783729
 C          -7.515421      -28.475657       -4.890041
 C          -7.233356      -26.548380       -3.249870
 C          -6.590990      -27.879555       -3.826781
 H          -9.649379      -29.149845       -4.954662
 H          -8.790449      -29.310394       -3.446725
 H          -9.031693      -25.733637       -2.483951
 H          -8.626672      -27.460581       -1.937494
 H          -7.485673      -27.892544       -5.794807
 H          -7.077164      -29.391434       -5.167214
 H          -6.579341      -26.129065       -2.424864
 H          -7.236069      -25.761230       -4.010505
 H          -5.560349      -27.748041       -4.176264
 H          -6.500534      -28.659109       -3.016654
