20
 generated by VMD
 C         -58.318329     -159.034164      -58.008480
 N         -59.306465     -158.919159      -57.342915
 H         -59.524063     -159.919235      -54.487251
 H         -57.456257     -159.195892      -58.643600
 C         -59.529930     -160.805374      -53.853233
 C         -58.647808     -160.966125      -52.691826
 C         -60.671898     -161.716660      -54.005932
 C         -59.310596     -161.149963      -51.360695
 C         -61.450695     -161.667587      -52.760693
 C         -60.471375     -162.109772      -51.628368
 H         -57.918018     -160.058075      -52.685032
 H         -57.999504     -161.798264      -52.919178
 H         -61.297951     -161.391235      -54.747589
 H         -60.229958     -162.699448      -54.249813
 H         -59.689804     -160.252151      -50.947884
 H         -58.601616     -161.536255      -50.598320
 H         -62.284664     -162.389450      -52.855442
 H         -61.796711     -160.677719      -52.502331
 H         -61.123238     -162.244720      -50.674889
 H         -60.112156     -163.151123      -51.786594
