20
 generated by VMD
 C         -50.292347     -145.201660      -45.082890
 N         -49.994759     -144.848587      -44.062210
 H         -53.076683     -143.480438      -45.951328
 H         -50.612690     -145.450165      -46.069637
 C         -53.490402     -143.009552      -46.846062
 C         -52.528908     -142.859711      -48.061539
 C         -54.624584     -142.188812      -46.931023
 C         -53.330196     -143.140381      -49.300415
 C         -55.448433     -142.232376      -48.151669
 C         -54.544510     -142.176895      -49.425232
 H         -51.781906     -143.570099      -48.153400
 H         -52.234180     -141.816620      -48.071003
 H         -55.298763     -142.296814      -46.091476
 H         -54.374317     -141.147934      -46.604328
 H         -53.556274     -144.152054      -49.309719
 H         -52.825623     -143.001190      -50.218983
 H         -56.063675     -141.340714      -48.199242
 H         -56.038059     -143.207291      -48.264614
 H         -55.035286     -142.643814      -50.230854
 H         -54.213226     -141.183456      -49.553669
