20
 generated by VMD
 C         -11.959545      -31.529293       -8.282953
 N         -12.096035      -30.644453       -7.592307
 H         -11.475854      -34.881035       -7.870921
 H         -12.762757      -34.004234       -7.021185
 C         -11.856118      -34.668510       -6.879947
 C         -10.822941      -34.013439       -5.998777
 C         -12.198912      -36.050423       -6.361056
 C         -11.258810      -33.787315       -4.612215
 C         -12.602620      -35.933773       -4.863981
 C         -11.536068      -35.135166       -3.996708
 H         -10.563328      -33.122425       -6.499014
 H          -9.937360      -34.696186       -5.961702
 H         -12.994379      -36.493881       -6.977029
 H         -11.318788      -36.712990       -6.440086
 H         -12.081939      -33.061699       -4.488134
 H         -10.405755      -33.407948       -4.084938
 H         -12.734534      -36.890732       -4.424305
 H         -13.619451      -35.381470       -4.753929
 H         -11.854017      -35.028030       -2.959287
 H         -10.609849      -35.682030       -3.969499
