20
 generated by VMD
 C         -41.545376     -119.626846      -34.297173
 N         -41.562099     -120.394554      -35.199356
 H         -43.257179     -118.507019      -36.854729
 H         -41.562702     -119.070473      -33.315628
 C         -43.809540     -118.398613      -37.740791
 C         -42.991501     -118.321320      -39.000607
 C         -45.159565     -117.781868      -37.791515
 C         -43.873955     -118.659012      -40.263844
 C         -45.921883     -118.110802      -39.079937
 C         -45.170109     -117.914818      -40.384205
 H         -42.198738     -119.024132      -38.794651
 H         -42.560600     -117.352760      -38.976791
 H         -45.846928     -118.004005      -36.977509
 H         -44.878448     -116.645569      -37.770775
 H         -43.993412     -119.782051      -40.301723
 H         -43.242466     -118.337486      -41.046165
 H         -46.915855     -117.458397      -39.035423
 H         -46.244213     -119.232979      -38.910133
 H         -45.866776     -118.270088      -41.110489
 H         -44.972351     -116.798546      -40.429760
