20
 generated by VMD
 C         -12.763686      -28.092419       -5.769986
 N         -13.078523      -28.573978       -6.728997
 H         -12.032221      -31.745171       -4.819139
 H         -11.194712      -30.166401       -5.233480
 C         -11.071054      -31.165405       -4.745002
 C         -10.004353      -31.913391       -5.452159
 C         -10.769117      -30.951200       -3.212886
 C          -8.677178      -31.350586       -5.193408
 C          -9.335945      -30.451706       -2.947673
 C          -8.306462      -31.137007       -3.739527
 H         -10.174711      -31.965057       -6.520507
 H          -9.960347      -32.986820       -5.093062
 H         -11.533221      -30.283800       -2.797009
 H         -10.826798      -31.899849       -2.739310
 H          -8.569381      -30.369770       -5.679894
 H          -7.984822      -32.057636       -5.649145
 H          -9.074363      -30.553104       -1.910107
 H          -9.235220      -29.355686       -3.132856
 H          -7.313040      -30.565151       -3.688093
 H          -8.189128      -32.165142       -3.346199
