20
 generated by VMD
 C         -40.766880     -100.887093      -32.653942
 N         -41.417908     -101.081467      -31.751669
 H         -38.262383     -102.527039      -32.583073
 H         -39.877834     -100.784996      -33.336597
 C         -37.299492     -102.707016      -32.008610
 C         -36.102032     -102.753319      -32.797745
 C         -37.206177     -102.589256      -30.590485
 C         -35.370373     -101.463921      -32.387096
 C         -36.333168     -101.513168      -30.015785
 C         -35.084179     -101.418236      -30.923582
 H         -36.272175     -102.818085      -33.924732
 H         -35.526867     -103.631355      -32.463936
 H         -38.171932     -102.389557      -30.274483
 H         -36.870644     -103.534203      -30.110102
 H         -35.949192     -100.550995      -32.714764
 H         -34.480846     -101.515388      -33.139286
 H         -36.002792     -101.734863      -28.914597
 H         -36.986366     -100.674416      -30.021597
 H         -34.686111     -100.474136      -30.538942
 H         -34.334179     -102.192596      -30.632019
