20
 generated by VMD
 C         -20.088757      -56.094677      -16.701166
 N         -21.231850      -56.379074      -16.665277
 H         -22.040373      -59.324970      -17.334555
 H         -19.016277      -55.961613      -17.190760
 C         -22.357222      -59.864147      -16.448732
 C         -22.489372      -59.256493      -15.131631
 C         -22.016468      -61.461830      -16.480730
 C         -21.542149      -59.769096      -14.070154
 C         -20.759583      -61.658070      -15.623315
 C         -20.930246      -61.186642      -14.189151
 H         -23.522760      -59.559811      -14.834214
 H         -22.462013      -58.193859      -15.199177
 H         -22.869474      -62.041306      -16.083858
 H         -21.784794      -61.755226      -17.508989
 H         -21.761744      -59.447868      -13.027743
 H         -20.712320      -59.127182      -14.258809
 H         -19.879841      -61.169544      -16.148581
 H         -20.425516      -62.747398      -15.619928
 H         -21.672560      -61.887798      -13.735660
 H         -19.959591      -61.291458      -13.752808
