20
 generated by VMD
 C         -58.760532     -158.854233      -58.176117
 N         -58.670033     -159.823853      -57.462826
 H         -58.777145     -160.887695      -54.811623
 H         -58.855713     -157.938477      -58.807442
 C         -59.367867     -161.357697      -53.949417
 C         -58.725075     -161.762604      -52.668087
 C         -60.701012     -162.018738      -54.194187
 C         -59.759754     -161.588242      -51.454647
 C         -61.781090     -161.861603      -53.112583
 C         -61.072060     -162.306442      -51.785378
 H         -57.819675     -161.114227      -52.586777
 H         -58.483986     -162.747803      -52.643768
 H         -60.935688     -161.616226      -55.207874
 H         -60.538761     -163.154465      -54.371136
 H         -59.956024     -160.453903      -51.337337
 H         -59.215622     -162.042999      -50.567322
 H         -62.726990     -162.341904      -53.254879
 H         -62.090946     -160.862183      -52.939240
 H         -61.799980     -161.955231      -50.991737
 H         -60.936405     -163.370712      -51.921906
