20
 generated by VMD
 C         -49.985394     -127.612045      -39.145645
 N         -49.236237     -126.740997      -39.115784
 H         -46.968292     -126.276207      -41.338062
 H         -50.459797     -128.540619      -39.351597
 C         -46.221432     -125.523636      -41.196758
 C         -45.070042     -126.001762      -40.479103
 C         -46.604790     -124.129646      -41.150238
 C         -43.833130     -125.128777      -40.765472
 C         -45.340149     -123.255829      -41.454567
 C         -44.115505     -123.617981      -40.507156
 H         -44.836750     -127.012352      -40.787838
 H         -45.321354     -126.060852      -39.476276
 H         -47.317196     -123.824905      -42.030727
 H         -47.073700     -123.970749      -40.146496
 H         -43.454933     -125.291573      -41.754013
 H         -43.017094     -125.398834      -40.137936
 H         -45.613213     -122.095490      -41.419296
 H         -44.810051     -123.406433      -42.456722
 H         -43.263386     -123.044930      -40.922569
 H         -44.187504     -123.274879      -39.438564
