20
 generated by VMD
 C         -68.910347     -184.667206      -66.267212
 N         -69.543777     -185.455673      -66.818275
 H         -69.555634     -182.865692      -63.403946
 H         -68.453407     -183.925598      -65.706322
 C         -69.095558     -183.621704      -62.834839
 C         -69.839455     -184.752472      -62.305759
 C         -68.099770     -182.980377      -61.908737
 C         -68.964500     -185.651978      -61.309364
 C         -67.115791     -183.880463      -61.339897
 C         -67.812225     -184.895386      -60.458889
 H         -70.359070     -185.398529      -62.988373
 H         -70.650520     -184.371521      -61.665073
 H         -67.610672     -182.144470      -62.463318
 H         -68.774162     -182.450180      -61.132904
 H         -68.377808     -186.354752      -61.829372
 H         -69.623413     -186.217545      -60.672520
 H         -66.345009     -183.211258      -60.835617
 H         -66.677650     -184.520172      -62.098202
 H         -67.097321     -185.803131      -60.275562
 H         -68.339653     -184.556366      -59.480709
