20
 generated by VMD
 C         -49.656471     -133.125793      -47.105015
 N         -49.251709     -132.078461      -47.006184
 H         -47.773418     -134.251343      -44.147221
 H         -49.931969     -134.182785      -46.963619
 C         -48.717228     -134.650848      -43.717621
 C         -49.260658     -136.067703      -44.047119
 C         -49.691738     -133.682831      -43.200462
 C         -50.092644     -136.661682      -42.915092
 C         -50.509327     -134.349014      -41.982773
 C         -51.140015     -135.728439      -42.310936
 H         -48.297165     -136.724548      -44.215294
 H         -49.796989     -136.106888      -44.987228
 H         -49.033733     -132.829681      -42.896740
 H         -50.349636     -133.344360      -43.989468
 H         -49.318642     -136.959564      -42.218315
 H         -50.426418     -137.656677      -43.187164
 H         -51.387962     -133.784958      -41.728481
 H         -49.918892     -134.345947      -41.035027
 H         -51.228352     -136.278915      -41.325775
 H         -51.895859     -135.637680      -43.020237
