20
 generated by VMD
 C         -22.533346      -52.624767      -12.017426
 N         -23.681793      -52.389687      -12.081573
 H         -19.988646      -53.995747      -14.424454
 H         -21.503534      -52.746006      -11.767198
 C         -18.980951      -53.746410      -14.224665
 C         -18.564001      -52.311714      -14.255618
 C         -18.179014      -54.647480      -13.403578
 C         -17.042259      -52.193222      -14.250613
 C         -17.157219      -53.943718      -12.511187
 C         -16.208424      -52.958664      -13.200693
 H         -19.108343      -51.721878      -13.446919
 H         -18.823008      -51.886196      -15.211976
 H         -18.791527      -55.249268      -12.737501
 H         -17.778309      -55.384678      -14.173534
 H         -16.821028      -51.116951      -14.213016
 H         -16.635248      -52.538109      -15.205936
 H         -16.550289      -54.710369      -12.090362
 H         -17.687164      -53.416691      -11.640910
 H         -15.677332      -52.375027      -12.433533
 H         -15.371521      -53.567703      -13.671735
