20
 generated by VMD
 C         -50.427086     -129.453430      -43.523014
 N         -50.848194     -129.659485      -44.593090
 H         -48.969067     -127.702881      -40.319481
 H         -49.957161     -129.286682      -42.585991
 C         -48.005173     -128.123245      -40.619251
 C         -47.564693     -129.553497      -40.570755
 C         -46.948475     -127.067276      -40.677444
 C         -46.313942     -129.807068      -41.459358
 C         -45.728287     -127.360977      -41.645096
 C         -45.174625     -128.789658      -41.475399
 H         -48.263859     -130.349289      -40.893982
 H         -47.350281     -129.769333      -39.553028
 H         -47.279259     -126.164536      -41.008625
 H         -46.566994     -126.842598      -39.615189
 H         -46.625439     -130.066315      -42.516346
 H         -45.919415     -130.769043      -41.176334
 H         -44.860420     -126.758308      -41.391346
 H         -46.007385     -127.261253      -42.670036
 H         -44.537785     -128.961609      -42.310364
 H         -44.743355     -128.902985      -40.466698
