20
 generated by VMD
 C          -1.472246      -17.128168        2.076144
 N          -1.580757      -17.348103        3.161609
 H          -5.186373      -17.094004        0.820272
 H          -5.024409      -18.429689       -0.398957
 C          -5.731192      -17.658081        0.068989
 C          -6.451146      -16.725998       -0.973256
 C          -6.873074      -18.520571        0.707810
 C          -7.058322      -17.549530       -2.149356
 C          -7.586704      -19.309021       -0.403308
 C          -8.064155      -18.514729       -1.628332
 H          -5.650078      -16.047474       -1.360938
 H          -7.263661      -16.150431       -0.565956
 H          -6.400137      -19.210417        1.309057
 H          -7.570374      -17.860884        1.178392
 H          -6.210968      -18.103624       -2.665871
 H          -7.521616      -16.886110       -2.868144
 H          -8.423890      -19.934011       -0.024957
 H          -6.807895      -20.001032       -0.751414
 H          -8.560438      -19.119778       -2.381110
 H          -8.890807      -17.920244       -1.189261
