20
 generated by VMD
 C         -41.438671     -102.355415      -35.646358
 N         -41.529865     -103.494232      -35.850574
 H         -39.560810     -104.662544      -33.160130
 H         -41.670700     -101.371445      -35.411304
 C         -38.694298     -105.037247      -32.749619
 C         -37.245094     -104.604149      -32.853775
 C         -38.867538     -106.447319      -32.250992
 C         -36.440834     -104.815956      -31.616419
 C         -38.129135     -106.460121      -30.830738
 C         -36.630901     -106.159813      -30.970848
 H         -37.163059     -103.564156      -33.167046
 H         -36.872059     -105.196869      -33.708664
 H         -39.903187     -106.566833      -32.103977
 H         -38.535080     -107.177490      -33.123535
 H         -36.614033     -104.018738      -30.789789
 H         -35.347881     -104.593887      -31.835356
 H         -38.163662     -107.475449      -30.474001
 H         -38.659542     -105.829826      -30.063639
 H         -36.220245     -106.254143      -29.909832
 H         -36.224472     -107.000946      -31.498213
