20
 generated by VMD
 C         -10.660963      -37.383999       -7.877841
 N         -10.679892      -36.289089       -7.952338
 H         -13.358218      -37.558842       -7.690969
 H         -14.418615      -38.223354       -6.425906
 C         -14.015008      -38.348415       -7.468668
 C         -13.170386      -39.663849       -7.456628
 C         -15.201062      -38.425102       -8.533368
 C         -13.998266      -40.929806       -7.349512
 C         -16.016375      -39.687225       -8.309655
 C         -15.174515      -40.964142       -8.365880
 H         -12.411572      -39.748871       -6.649675
 H         -12.559576      -39.710548       -8.390841
 H         -15.760790      -37.494938       -8.468645
 H         -14.724794      -38.370892       -9.560114
 H         -14.439899      -40.911617       -6.376847
 H         -13.314562      -41.811325       -7.319293
 H         -16.879105      -39.747967       -8.918975
 H         -16.409756      -39.603172       -7.231878
 H         -15.786914      -41.853031       -8.138992
 H         -14.832150      -41.054016       -9.439428
