20
 generated by VMD
 C         -70.204369     -181.366837      -62.687752
 N         -71.018402     -180.622833      -63.119823
 H         -67.221306     -181.834900      -60.729290
 H         -69.437454     -181.990433      -62.307159
 C         -66.628021     -180.976578      -60.746113
 C         -65.145599     -180.998642      -60.357025
 C         -67.300117     -179.644714      -60.570286
 C         -64.351227     -179.711945      -60.756119
 C         -66.401497     -178.373917      -60.933620
 C         -65.007683     -178.447861      -60.330494
 H         -64.677017     -181.856171      -60.857613
 H         -65.105476     -181.366394      -59.281940
 H         -68.167946     -179.680923      -61.107441
 H         -67.557442     -179.490570      -59.535683
 H         -64.217484     -179.859009      -61.810242
 H         -63.421780     -179.694183      -60.299107
 H         -66.859863     -177.381638      -60.676132
 H         -66.244087     -178.293045      -62.026268
 H         -64.389267     -177.702377      -60.648457
 H         -65.136208     -178.244797      -59.224869
