20
 generated by VMD
 C         -62.667305     -171.992569      -55.459549
 N         -62.238087     -173.038254      -55.279415
 H         -61.473175     -171.309845      -58.251797
 H         -63.106567     -171.028152      -55.509892
 C         -62.399796     -170.735260      -58.431934
 C         -62.342453     -169.345337      -57.868225
 C         -63.723835     -171.303543      -58.808804
 C         -63.631012     -168.485825      -58.036934
 C         -64.962532     -170.339066      -58.821247
 C         -64.992790     -169.146011      -57.928406
 H         -61.472553     -168.752335      -58.458866
 H         -62.002171     -169.387741      -56.901562
 H         -63.698906     -171.827286      -59.775452
 H         -63.753471     -172.186249      -58.081490
 H         -63.719364     -167.865692      -58.954769
 H         -63.666115     -167.701874      -57.259037
 H         -65.842079     -170.940277      -58.587894
 H         -65.187920     -170.100784      -59.818539
 H         -65.735962     -168.382736      -58.189110
 H         -65.190025     -169.442429      -56.850983
