20
 generated by VMD
 C         -66.640816     -189.669525      -66.591217
 N         -66.237999     -189.348343      -67.620316
 H         -70.398186     -190.274292      -65.539627
 H         -66.842583     -189.848267      -65.515747
 C         -70.826172     -190.038589      -64.616875
 C         -71.928566     -190.836395      -64.102028
 C         -70.466026     -188.710785      -64.001991
 C         -73.201927     -189.939545      -63.988621
 C         -71.655037     -187.815231      -63.724045
 C         -72.868309     -188.609161      -63.118515
 H         -71.518829     -191.422806      -63.188717
 H         -72.145386     -191.577881      -64.956787
 H         -69.734207     -188.751755      -63.188736
 H         -69.771019     -188.208145      -64.818062
 H         -74.076317     -190.475525      -63.726818
 H         -73.425941     -189.555786      -65.017921
 H         -72.032906     -187.365555      -64.644386
 H         -71.262611     -186.969345      -63.280354
 H         -72.613174     -188.868011      -61.999527
 H         -73.825829     -187.946686      -63.222897
