20
 generated by VMD
 C         -78.913124     -204.213394      -70.421700
 N         -79.932556     -204.791946      -70.590935
 H         -76.720795     -203.358871      -68.537727
 H         -77.979408     -203.568695      -70.462463
 C         -75.817818     -203.241898      -69.191223
 C         -75.798073     -202.008133      -70.039986
 C         -74.561401     -204.006271      -69.006851
 C         -74.434074     -201.528076      -70.640709
 C         -73.407143     -203.035843      -68.970375
 C         -73.198875     -202.426529      -70.376190
 H         -76.127213     -201.191055      -69.455299
 H         -76.566452     -202.142670      -70.874695
 H         -74.623184     -204.362061      -68.012062
 H         -74.472977     -204.751907      -69.763084
 H         -74.192871     -200.617050      -70.143478
 H         -74.546127     -201.362015      -71.703064
 H         -72.367714     -203.550781      -68.936134
 H         -73.441101     -202.236023      -68.214012
 H         -72.301979     -201.799408      -70.322182
 H         -73.040115     -203.196045      -71.232224
