20
 generated by VMD
 C         -37.993198     -109.666687      -36.477669
 N         -37.428204     -108.863113      -35.828320
 H         -40.890148     -112.070251      -37.241791
 H         -38.530621     -110.356209      -37.057957
 C         -41.522793     -112.240677      -36.380955
 C         -42.325844     -113.507500      -36.427444
 C         -41.651180     -111.316093      -35.265106
 C         -42.796352     -114.064095      -35.080769
 C         -42.315857     -111.779442      -33.842621
 C         -43.280830     -112.899330      -34.130711
 H         -41.593338     -114.261772      -36.803734
 H         -43.171570     -113.358742      -37.192410
 H         -40.592052     -110.918839      -35.032734
 H         -42.241306     -110.348755      -35.495621
 H         -42.081661     -114.726784      -34.572319
 H         -43.591183     -114.924469      -35.236187
 H         -42.887444     -111.009850      -33.316059
 H         -41.459229     -112.020340      -33.244198
 H         -43.541801     -113.412537      -33.248417
 H         -44.305145     -112.470390      -34.532955
