20
 generated by VMD
 C         -78.991051     -208.125015      -76.007103
 N         -78.341377     -207.602509      -75.235062
 H         -79.392181     -210.064499      -73.360313
 H         -79.669655     -208.671829      -76.584587
 C         -78.646835     -210.217300      -72.556206
 C         -77.477798     -209.268524      -72.420242
 C         -78.925797     -211.210190      -71.507378
 C         -77.062340     -208.926453      -70.932449
 C         -78.550568     -210.700653      -70.154198
 C         -77.170639     -210.096619      -70.067986
 H         -77.674339     -208.307571      -72.917213
 H         -76.623413     -209.876312      -72.838501
 H         -79.927521     -211.662659      -71.504562
 H         -78.252632     -212.077881      -71.690369
 H         -77.682373     -208.222321      -70.346786
 H         -76.001923     -208.593262      -70.950218
 H         -78.511826     -211.649765      -69.424728
 H         -79.317917     -210.079300      -69.740356
 H         -77.017365     -209.936829      -68.982864
 H         -76.369682     -210.767166      -70.366264
