20
 generated by VMD
 C         -14.963472      -45.583725       -6.903470
 N         -14.553297      -46.624252       -6.956915
 H         -15.461713      -44.064701       -9.045396
 H         -14.557364      -44.330151      -10.495246
 C         -15.537600      -44.397930      -10.087369
 C         -16.468777      -43.424519      -10.863472
 C         -15.955298      -45.846474      -10.150020
 C         -16.671280      -43.759926      -12.287663
 C         -16.252811      -46.094601      -11.632563
 C         -17.273697      -45.142063      -12.381208
 H         -16.088711      -42.393295      -10.681135
 H         -17.428656      -43.394604      -10.343423
 H         -15.060993      -46.405857       -9.797731
 H         -16.846802      -46.175114       -9.604043
 H         -15.721931      -43.698402      -12.869187
 H         -17.297857      -43.010090      -12.776117
 H         -16.709927      -47.133251      -11.723938
 H         -15.368258      -46.105755      -12.236466
 H         -17.345039      -45.500034      -13.402197
 H         -18.224651      -45.108982      -11.929798
