20
 generated by VMD
 C         -55.949100     -149.192230      -45.853424
 N         -55.708279     -150.094986      -45.132397
 H         -54.054264     -147.922760      -47.887428
 H         -56.282337     -148.290405      -46.427280
 C         -54.143841     -147.374435      -48.815197
 C         -53.102203     -147.442047      -49.799732
 C         -54.815845     -146.104218      -48.562752
 C         -53.537502     -146.789001      -51.106792
 C         -55.235123     -145.431656      -49.827591
 C         -54.153378     -145.394913      -50.919899
 H         -52.998623     -148.534058      -50.207745
 H         -52.219280     -146.972580      -49.350044
 H         -55.554794     -146.204788      -47.745056
 H         -54.087837     -145.462158      -48.076309
 H         -54.265179     -147.342422      -51.640007
 H         -52.674458     -146.678223      -51.778938
 H         -55.414593     -144.431702      -49.471851
 H         -56.254116     -145.740372      -50.246979
 H         -54.543255     -144.868759      -51.763748
 H         -53.261761     -144.876694      -50.460606
