20
 generated by VMD
 C         -25.016853      -70.878082      -16.813156
 N         -25.204926      -70.875488      -15.670789
 H         -23.818367      -68.583122      -18.639378
 H         -24.688318      -70.927483      -17.775463
 C         -24.454544      -68.719078      -19.545628
 C         -23.909193      -69.607063      -20.634995
 C         -25.881653      -68.251251      -19.588520
 C         -24.831989      -70.534134      -21.339815
 C         -26.836010      -69.100616      -20.511274
 C         -26.120340      -69.839096      -21.752287
 H         -22.984634      -70.089394      -20.381561
 H         -23.489960      -68.894119      -21.264559
 H         -26.174879      -68.132568      -18.523369
 H         -25.833071      -67.268318      -20.206768
 H         -24.903725      -71.444283      -20.789434
 H         -24.279428      -70.768806      -22.278803
 H         -27.779844      -68.643295      -20.863113
 H         -27.161089      -69.967117      -19.912497
 H         -26.802492      -70.581215      -22.295765
 H         -25.918270      -68.967339      -22.444529
