20
 generated by VMD
 C         -31.655600      -78.582962      -26.356535
 N         -31.182350      -77.971832      -27.197584
 H         -29.484556      -79.684875      -23.745857
 H         -31.916168      -79.335007      -25.706902
 C         -29.017221      -80.683037      -23.746449
 C         -27.624884      -80.798813      -23.291206
 C         -29.868696      -81.828522      -23.586535
 C         -27.656242      -81.051727      -21.790657
 C         -29.988615      -82.058678      -22.041389
 C         -28.514223      -82.234924      -21.509558
 H         -27.111441      -79.900749      -23.580359
 H         -27.281212      -81.671127      -23.918619
 H         -30.846750      -81.694145      -23.918491
 H         -29.462509      -82.646080      -24.254034
 H         -28.040916      -80.251678      -21.182354
 H         -26.645996      -81.207764      -21.415220
 H         -30.506563      -82.976791      -21.783039
 H         -30.510469      -81.160896      -21.655708
 H         -28.590080      -82.505829      -20.388584
 H         -28.004927      -83.020699      -22.099239
