20
 generated by VMD
 C         -30.596746      -75.801414      -22.856775
 N         -30.917154      -75.237762      -23.856466
 H         -28.883776      -78.860519      -21.341429
 H         -30.173479      -76.451126      -22.145212
 C         -28.099648      -78.089394      -21.555151
 C         -27.169325      -78.210396      -22.782660
 C         -27.574673      -77.395447      -20.426901
 C         -26.629257      -76.855370      -23.196455
 C         -26.851332      -76.085358      -20.818327
 C         -25.927069      -76.287277      -21.963486
 H         -27.968979      -78.601212      -23.560575
 H         -26.284946      -78.945793      -22.605642
 H         -28.447330      -77.240509      -19.637474
 H         -26.901155      -78.105385      -19.956228
 H         -27.417120      -76.190849      -23.517004
 H         -25.820955      -76.838371      -23.931822
 H         -26.266111      -75.688095      -20.029095
 H         -27.665535      -75.399071      -21.132721
 H         -25.687668      -75.254059      -22.226229
 H         -25.016043      -76.863274      -21.758894
