20
 generated by VMD
 C         -78.759254     -207.944412      -76.773773
 N         -78.700584     -208.035065      -75.581078
 H         -79.089088     -210.198151      -73.497444
 H         -78.718353     -207.776566      -77.819878
 C         -78.676140     -210.195831      -72.489288
 C         -77.369484     -209.545395      -72.306305
 C         -79.185349     -211.285141      -71.576218
 C         -77.233589     -209.213730      -70.770538
 C         -78.683395     -211.121811      -70.110344
 C         -77.249260     -210.583984      -69.870354
 H         -77.362839     -208.586365      -72.883453
 H         -76.522476     -210.135712      -72.612167
 H         -80.252769     -211.371750      -71.652916
 H         -78.745224     -212.211487      -71.977180
 H         -78.008614     -208.522430      -70.453903
 H         -76.255661     -208.770844      -70.809624
 H         -78.735497     -212.128571      -69.646385
 H         -79.499245     -210.542633      -69.562073
 H         -76.910988     -210.489868      -68.824326
 H         -76.575943     -211.406570      -70.333946
