20
 generated by VMD
 C         -33.602619      -96.316879      -25.596207
 N         -34.439720      -96.593422      -26.387331
 H         -35.219151      -93.952446      -27.350733
 H         -32.877583      -96.282730      -24.886261
 C         -34.852448      -94.201820      -28.353533
 C         -35.966042      -94.677269      -29.308884
 C         -33.543449      -93.806252      -28.986727
 C         -36.149426      -93.826355      -30.583483
 C         -33.716648      -92.951027      -30.228952
 C         -34.788410      -93.444275      -31.215836
 H         -36.948513      -94.839104      -28.877048
 H         -35.534950      -95.688988      -29.627590
 H         -33.036686      -93.227974      -28.171595
 H         -32.928001      -94.756973      -29.224560
 H         -36.733589      -93.006317      -30.253412
 H         -36.864140      -94.365562      -31.270082
 H         -32.765495      -93.020317      -30.667160
 H         -33.894810      -91.848793      -30.094374
 H         -35.032360      -92.747925      -31.898397
 H         -34.657269      -94.386261      -31.844030
