20
 generated by VMD
 C         -40.444611     -106.889427      -37.565510
 N         -39.370144     -106.650620      -37.866982
 H         -38.615719     -108.083130      -34.291485
 H         -41.498814     -107.194687      -37.519421
 C         -39.275280     -108.890495      -33.999626
 C         -38.724171     -110.088860      -33.201046
 C         -40.767239     -108.793518      -34.324982
 C         -39.645359     -110.616028      -32.234604
 C         -41.688347     -109.456512      -33.270439
 C         -41.119862     -110.754875      -32.680283
 H         -37.748966     -109.810204      -32.940689
 H         -38.570618     -110.814636      -33.974236
 H         -41.045765     -107.715813      -34.471802
 H         -40.913193     -109.329109      -35.305008
 H         -39.475388     -109.899040      -31.393021
 H         -39.460445     -111.657417      -31.908480
 H         -42.664749     -109.687088      -33.853394
 H         -42.159477     -108.802933      -32.427940
 H         -41.700676     -111.035660      -31.726881
 H         -41.241043     -111.569824      -33.412674
