20
 generated by VMD
 C         -13.348766      -28.748768       -6.485452
 N         -13.163905      -28.802149       -7.587842
 H         -12.017700      -30.657345       -5.010299
 H         -10.470722      -29.745893       -4.455122
 C         -10.988349      -30.760826       -4.634840
 C         -10.115785      -31.507547       -5.639233
 C         -10.933168      -31.479105       -3.260162
 C          -8.707843      -31.847292       -5.120653
 C          -9.482069      -31.523273       -2.663201
 C          -8.568074      -32.256237       -3.687840
 H          -9.916240      -30.972591       -6.655205
 H         -10.577532      -32.439346       -5.910052
 H         -11.553931      -30.929056       -2.543109
 H         -11.339293      -32.523945       -3.368704
 H          -8.090358      -30.932119       -5.337585
 H          -8.223776      -32.689144       -5.715129
 H          -9.532414      -31.980883       -1.682512
 H          -9.131095      -30.485962       -2.493280
 H          -7.533706      -32.013611       -3.446777
 H          -8.760384      -33.372971       -3.647342
