20
 generated by VMD
 C         -59.541225     -152.139526      -50.763123
 N         -59.377110     -153.076828      -50.012489
 H         -56.514481     -151.154816      -48.364338
 H         -59.562305     -151.309143      -51.432774
 C         -55.932693     -150.906631      -49.282078
 C         -55.152290     -152.042603      -49.804653
 C         -55.471561     -149.475189      -49.214317
 C         -54.475498     -151.606308      -51.182877
 C         -54.799202     -149.164322      -50.569019
 C         -53.750011     -150.189499      -51.033108
 H         -55.800697     -152.981827      -49.934753
 H         -54.424145     -152.313232      -49.071003
 H         -56.398880     -148.925568      -49.143101
 H         -54.885330     -149.233032      -48.328526
 H         -55.303444     -151.432663      -51.870552
 H         -53.889698     -152.416397      -51.694103
 H         -54.439945     -148.149750      -50.390530
 H         -55.627796     -149.125336      -51.394886
 H         -53.238518     -149.976288      -51.931011
 H         -52.804253     -150.378204      -50.361832
