20
 generated by VMD
 C         -21.780962      -52.401409      -11.382828
 N         -21.598587      -52.933228      -10.312044
 H         -20.049244      -51.342457      -13.950035
 H         -21.584385      -51.801819      -12.262613
 C         -18.923597      -51.273617      -13.737522
 C         -18.076887      -51.933193      -14.755591
 C         -18.439259      -51.108452      -12.352626
 C         -16.577028      -51.912140      -14.452671
 C         -16.919775      -51.112389      -12.097783
 C         -16.189384      -52.111919      -12.967397
 H         -18.254173      -51.550938      -15.756662
 H         -18.302221      -53.013393      -14.803042
 H         -18.917320      -50.257141      -11.944352
 H         -18.855379      -51.945557      -11.773505
 H         -16.068649      -50.971470      -14.724511
 H         -16.116833      -52.648407      -15.109365
 H         -16.661026      -51.286163      -11.003236
 H         -16.471354      -50.085701      -12.325027
 H         -15.094237      -51.883171      -12.821415
 H         -16.388605      -53.135597      -12.536892
