20
 generated by VMD
 C         -11.764159      -41.646263       -6.163689
 N         -10.834373      -41.825226       -6.772748
 H         -14.683313      -41.338085       -8.467366
 H         -15.520564      -40.800224       -9.895638
 C         -15.278039      -41.672783       -9.306397
 C         -16.641188      -42.204842       -8.753936
 C         -14.630968      -42.780869      -10.133883
 C         -17.629538      -42.522980       -9.863032
 C         -15.513494      -43.094505      -11.306383
 C         -16.941034      -43.469795      -10.912995
 H         -17.076511      -41.407825       -8.092342
 H         -16.459368      -43.061634       -8.088810
 H         -13.589891      -42.402901      -10.443706
 H         -14.547475      -43.670475       -9.486302
 H         -17.877617      -41.661324      -10.501659
 H         -18.481918      -43.047043       -9.407468
 H         -15.097969      -43.901806      -11.829748
 H         -15.480845      -42.225079      -12.007236
 H         -17.633253      -43.667599      -11.734486
 H         -16.778969      -44.435520      -10.473590
