20
 generated by VMD
 C         -20.259624      -61.530739      -16.595875
 N         -19.558004      -61.078342      -17.376892
 H         -21.719028      -64.936256      -17.288965
 H         -20.785370      -62.093468      -15.760433
 C         -22.720661      -64.478531      -17.210640
 C         -23.192045      -64.036331      -18.539019
 C         -23.564358      -64.681206      -15.882673
 C         -24.586115      -64.588959      -18.745489
 C         -24.847536      -65.400200      -16.373594
 C         -25.502853      -64.602142      -17.560625
 H         -22.489946      -64.392082      -19.302097
 H         -22.973116      -62.932068      -18.680017
 H         -23.007130      -65.330528      -15.247528
 H         -23.554508      -63.657318      -15.412148
 H         -24.387295      -65.649384      -18.950148
 H         -25.040207      -64.134003      -19.592766
 H         -25.497753      -65.435982      -15.498433
 H         -24.512383      -66.403191      -16.753212
 H         -26.383619      -65.026611      -17.877268
 H         -25.589968      -63.527962      -17.384777
