20
 generated by VMD
 C         -32.267014      -93.716026      -25.320915
 N         -33.114414      -94.510849      -25.512459
 H         -33.869419      -95.051582      -28.639647
 H         -31.408770      -93.207443      -25.075579
 C         -34.307129      -94.090919      -29.042505
 C         -35.643044      -93.605148      -28.569689
 C         -33.621521      -93.447922      -30.190454
 C         -35.500828      -92.126556      -28.297125
 C         -33.523399      -91.917656      -30.008263
 C         -34.885201      -91.373291      -29.634317
 H         -35.968090      -94.214233      -27.706127
 H         -36.245682      -93.976204      -29.431250
 H         -32.614857      -93.924133      -30.120996
 H         -34.081593      -93.660500      -31.159733
 H         -34.814140      -92.069725      -27.447247
 H         -36.527431      -91.773178      -28.104969
 H         -33.175919      -91.486687      -30.919027
 H         -32.847473      -91.437164      -29.261564
 H         -34.767677      -90.300217      -29.222399
 H         -35.706520      -91.542671      -30.448536
