20
 generated by VMD
 C         -59.958572     -152.865067      -51.027473
 N         -60.798386     -152.433472      -51.782990
 H         -56.766502     -153.370697      -49.240841
 H         -59.078793     -153.323929      -50.509056
 C         -56.146263     -152.642273      -49.741009
 C         -54.700554     -152.833038      -49.479816
 C         -56.510101     -151.247665      -50.152798
 C         -53.808277     -152.551849      -50.675976
 C         -55.519081     -150.711807      -51.168045
 C         -54.048981     -151.042511      -50.878273
 H         -54.733612     -153.883255      -49.198917
 H         -54.348965     -152.352539      -48.578888
 H         -57.619759     -151.260086      -50.486153
 H         -56.424332     -150.574936      -49.270618
 H         -54.050842     -153.101089      -51.625317
 H         -52.787273     -152.862244      -50.432762
 H         -55.778473     -149.744141      -51.275295
 H         -55.792442     -151.314209      -52.106102
 H         -53.436958     -150.611176      -51.586552
 H         -53.781261     -150.435318      -49.944447
