20
 generated by VMD
 C         -59.894814     -157.488037      -56.586872
 N         -59.335873     -158.467209      -56.536003
 H         -60.350529     -157.528412      -53.162636
 H         -60.451176     -156.596954      -56.627327
 C         -59.714691     -158.320160      -52.762299
 C         -58.280083     -158.051361      -52.234440
 C         -60.019741     -159.791214      -53.212154
 C         -57.712402     -159.130478      -51.243763
 C         -59.572266     -160.664474      -52.034824
 C         -58.036430     -160.599396      -51.722824
 H         -58.283577     -157.043915      -51.807755
 H         -57.634796     -158.017090      -53.132095
 H         -61.089207     -159.863708      -53.192814
 H         -59.537140     -160.110092      -54.203663
 H         -58.264465     -158.729126      -50.274559
 H         -56.674149     -159.039215      -51.032333
 H         -59.657040     -161.752960      -52.218109
 H         -60.243050     -160.447021      -51.155155
 H         -57.853096     -161.515610      -50.974319
 H         -57.465958     -160.932175      -52.630993
