20
 generated by VMD
 C         -59.638252     -157.649567      -56.701015
 N         -59.037750     -158.687439      -56.848701
 H         -60.497742     -157.679550      -52.859985
 H         -60.134327     -156.688843      -56.607529
 C         -59.840363     -158.525711      -52.703136
 C         -58.389164     -158.271606      -52.343792
 C         -60.358643     -159.901840      -52.939705
 C         -57.999157     -159.425873      -51.450336
 C         -59.701447     -161.018082      -52.065098
 C         -58.250999     -160.763229      -51.956192
 H         -58.272575     -157.364761      -51.606590
 H         -57.707630     -158.270569      -53.226952
 H         -61.450138     -159.790939      -52.776436
 H         -60.338181     -160.167145      -53.943470
 H         -58.539108     -159.284119      -50.552906
 H         -56.940655     -159.558609      -51.055790
 H         -59.701328     -162.018677      -52.520252
 H         -60.326118     -161.064667      -51.224590
 H         -57.781330     -161.553360      -51.381599
 H         -57.654827     -160.850082      -52.976116
