20
 generated by VMD
 C         -60.019436     -156.646515      -55.719429
 N         -60.930988     -156.060562      -56.162868
 H         -59.843025     -157.687576      -52.876438
 H         -59.248371     -157.095047      -55.133770
 C         -58.737755     -157.944382      -52.904858
 C         -57.617901     -157.016312      -52.595245
 C         -58.520226     -159.316605      -52.415371
 C         -57.390892     -156.954132      -51.134636
 C         -58.264603     -159.361374      -50.871059
 C         -57.107857     -158.363678      -50.558384
 H         -57.855091     -155.963425      -53.001259
 H         -56.823242     -157.513092      -53.256187
 H         -59.376537     -159.985794      -52.500187
 H         -57.637974     -159.707794      -53.069386
 H         -58.275013     -156.649017      -50.559673
 H         -56.594070     -156.214920      -50.774509
 H         -57.868404     -160.373550      -50.640160
 H         -59.183811     -159.178726      -50.299118
 H         -56.941010     -158.285385      -49.482719
 H         -56.023014     -158.660370      -50.867996
