20
 generated by VMD
 C          -1.575577       -8.759563        0.261730
 N          -2.449505       -9.191795       -0.272593
 H          -2.506000      -10.300845        2.622514
 H          -2.014781      -11.551195        3.853184
 C          -2.775544      -11.262346        3.069513
 C          -2.905862      -12.380993        1.931260
 C          -4.118241      -11.174734        3.766372
 C          -3.258169      -13.741885        2.558143
 C          -4.687125      -12.499868        4.401685
 C          -4.563192      -13.631701        3.336804
 H          -1.959941      -12.423332        1.371274
 H          -3.682814      -12.054563        1.275301
 H          -4.161413      -10.435490        4.562553
 H          -4.841971      -10.962312        3.045651
 H          -2.440881      -14.022240        3.201038
 H          -3.358603      -14.478965        1.761850
 H          -5.739775      -12.290843        4.701371
 H          -4.158883      -12.778529        5.313776
 H          -4.601276      -14.608131        3.898072
 H          -5.336328      -13.628526        2.527487
