20
 generated by VMD
 C         -13.792509      -43.723953       -6.750649
 N         -13.413345      -43.814007       -5.694424
 H         -14.863095      -45.017696       -8.953341
 H         -14.245710      -43.922588      -10.071733
 C         -15.142594      -44.521858       -9.889906
 C         -16.340506      -43.564934       -9.692733
 C         -15.545500      -45.486271      -10.960634
 C         -16.964254      -42.851723      -10.962916
 C         -16.030472      -44.779453      -12.230250
 C         -17.239904      -43.857952      -12.065125
 H         -15.945410      -42.838573       -8.982486
 H         -17.198353      -44.023361       -9.151424
 H         -14.857667      -46.265430      -11.201238
 H         -16.352535      -46.147999      -10.620222
 H         -16.270151      -42.093498      -11.355616
 H         -17.891537      -42.317970      -10.646042
 H         -16.228922      -45.575535      -12.975313
 H         -15.148113      -44.250587      -12.644954
 H         -17.474777      -43.320076      -12.942173
 H         -18.070127      -44.490124      -11.797805
