20
 generated by VMD
 C         -29.876137      -89.615433      -25.602900
 N         -29.208477      -90.555901      -25.815851
 H         -32.100590      -91.574600      -27.349279
 H         -30.636417      -88.772400      -25.595350
 C         -32.864754      -90.790390      -27.345192
 C         -34.307735      -91.312119      -27.231974
 C         -32.666348      -89.657196      -28.246191
 C         -35.418472      -90.202599      -27.168077
 C         -33.618988      -88.544403      -27.750261
 C         -35.196079      -88.922302      -27.970846
 H         -34.302757      -91.839836      -26.239750
 H         -34.618176      -91.989128      -28.045078
 H         -31.701517      -89.220314      -27.988003
 H         -32.589996      -90.053474      -29.278231
 H         -35.477257      -89.967300      -26.032129
 H         -36.345119      -90.808548      -27.449240
 H         -33.390934      -87.666847      -28.385864
 H         -33.440594      -88.278008      -26.644838
 H         -35.726379      -87.977928      -27.643234
 H         -35.245781      -89.006920      -29.104750
