20
 generated by VMD
 C         -73.380875     -200.062744      -65.697800
 N         -73.750710     -200.873505      -64.957176
 H         -71.618111     -196.932663      -66.952614
 H         -73.085983     -199.501541      -66.525398
 C         -72.375221     -196.604401      -67.659561
 C         -73.380028     -195.612747      -67.109573
 C         -72.413185     -197.054993      -69.047943
 C         -74.182648     -195.082748      -68.374557
 C         -73.862854     -197.413315      -69.370239
 C         -74.748535     -196.176407      -69.262230
 H         -72.814499     -194.914062      -66.638588
 H         -74.176117     -196.018372      -66.413033
 H         -72.046707     -196.310623      -69.764069
 H         -71.791191     -197.955597      -69.253860
 H         -73.705017     -194.320282      -69.003609
 H         -75.094940     -194.630432      -67.954102
 H         -74.216408     -198.207199      -68.721123
 H         -73.967155     -197.697083      -70.426147
 H         -74.795586     -195.686096      -70.420906
 H         -75.780403     -196.341049      -68.921822
