20
 generated by VMD
 C         -13.192899      -31.048210       -8.254809
 N         -12.775094      -30.091650       -8.608644
 H         -11.539574      -32.675098       -6.857236
 H         -11.956513      -32.277973       -5.170341
 C         -11.463389      -32.998280       -5.811040
 C          -9.925830      -33.137558       -5.389672
 C         -12.180011      -34.341846       -5.781092
 C          -9.920494      -33.839165       -3.968527
 C         -12.125185      -35.009640       -4.428393
 C         -10.635247      -35.235340       -4.072295
 H          -9.483543      -32.105858       -5.373596
 H          -9.467195      -33.779182       -6.100966
 H         -13.248705      -34.148697       -6.020998
 H         -11.716671      -34.978287       -6.579940
 H         -10.435794      -33.175186       -3.201995
 H          -8.862176      -34.148266       -3.721440
 H         -12.580393      -35.973953       -4.470765
 H         -12.682695      -34.298275       -3.674609
 H         -10.609140      -35.654408       -3.081789
 H         -10.035046      -35.940308       -4.729836
