20
 generated by VMD
 C          -6.931866      -23.320412        3.174478
 N          -6.421965      -22.637480        2.452741
 H          -7.207742      -21.878035       -0.286652
 H          -8.571930      -22.114292       -1.290160
 C          -7.542660      -21.737713       -1.304845
 C          -6.689027      -22.567139       -2.286525
 C          -7.401750      -20.246082       -1.537541
 C          -7.034821      -22.207804       -3.764807
 C          -7.799056      -19.871353       -2.961858
 C          -6.999872      -20.683697       -3.965762
 H          -6.708318      -23.686235       -2.163160
 H          -5.649908      -22.347553       -2.082533
 H          -8.030193      -19.664991       -0.790534
 H          -6.339181      -19.955830       -1.492887
 H          -8.083042      -22.537722       -3.788183
 H          -6.356452      -22.689857       -4.501498
 H          -7.608952      -18.799316       -3.108712
 H          -8.842207      -20.162146       -3.134132
 H          -7.242591      -20.306242       -4.957559
 H          -5.975105      -20.432846       -3.758489
