20
 generated by VMD
 C         -11.669653      -39.528976       -7.038628
 N         -10.864472      -39.734814       -6.280555
 H         -13.227727      -40.766098       -9.095796
 H         -14.784158      -39.924709       -9.113259
 C         -14.300588      -40.892155       -9.214051
 C         -14.840869      -41.662628       -8.037066
 C         -14.623951      -41.502434      -10.546981
 C         -16.318495      -41.937191       -8.215402
 C         -16.125351      -41.488747      -10.686747
 C         -16.766029      -42.345993       -9.613853
 H         -14.658498      -41.240147       -7.029237
 H         -14.297071      -42.650269       -8.007518
 H         -14.153345      -40.949966      -11.362569
 H         -14.142637      -42.541321      -10.670020
 H         -16.851416      -41.016968       -7.927909
 H         -16.724413      -42.641624       -7.453414
 H         -16.305525      -41.921921      -11.725593
 H         -16.466331      -40.479820      -10.641086
 H         -17.818312      -42.279987       -9.719020
 H         -16.463642      -43.376022       -9.717722
