20
 generated by VMD
 C         -50.882133     -145.061264      -44.668404
 N         -50.969833     -146.226837      -44.423439
 H         -52.963730     -143.840225      -46.206020
 H         -50.999645     -144.040222      -44.929516
 C         -53.477863     -143.701981      -47.134304
 C         -52.539814     -143.709412      -48.388268
 C         -54.807938     -142.798981      -47.146767
 C         -53.428917     -143.631409      -49.709641
 C         -55.468475     -142.786423      -48.501614
 C         -54.494034     -142.481415      -49.639305
 H         -51.855110     -144.651474      -48.535728
 H         -51.801254     -142.839432      -48.364006
 H         -55.433956     -143.287445      -46.408459
 H         -54.539486     -141.667297      -46.882942
 H         -54.105236     -144.490494      -49.840401
 H         -52.702545     -143.527893      -50.593616
 H         -56.147636     -141.944061      -48.636158
 H         -56.153862     -143.639526      -48.582272
 H         -54.987385     -142.358429      -50.678715
 H         -53.925949     -141.446869      -49.523930
