20
 generated by VMD
 C         -70.178139     -183.860168      -66.069901
 N         -69.060646     -183.596771      -66.229591
 H         -68.808044     -184.715240      -63.326530
 H         -71.216019     -184.024948      -65.973633
 C         -68.480881     -184.107605      -62.538601
 C         -68.883362     -184.720459      -61.247292
 C         -68.067032     -182.740753      -62.491703
 C         -67.787498     -184.479721      -60.216385
 C         -66.918678     -182.405518      -61.595734
 C         -67.325348     -182.970627      -60.165661
 H         -68.980797     -185.849030      -61.256004
 H         -69.830986     -184.279266      -60.977814
 H         -67.899124     -182.353149      -63.463184
 H         -69.083382     -182.283112      -62.190773
 H         -66.928421     -185.240616      -60.427765
 H         -68.153389     -184.739395      -59.173683
 H         -66.748032     -181.379654      -61.427559
 H         -66.061295     -182.864838      -62.009731
 H         -66.422295     -182.884140      -59.542267
 H         -68.253281     -182.373535      -59.643780
