20
 generated by VMD
 C         -68.587769     -185.607224      -66.489388
 N         -67.924500     -186.292511      -67.155212
 H         -69.521767     -183.339386      -63.579483
 H         -69.190147     -184.897034      -65.851799
 C         -69.464050     -184.222275      -62.989082
 C         -70.690659     -184.851440      -62.401188
 C         -68.209579     -185.162781      -63.044666
 C         -70.518539     -185.815323      -61.241264
 C         -67.954430     -185.711121      -61.730694
 C         -69.111229     -186.597687      -61.291786
 H         -71.128372     -185.488754      -63.251968
 H         -71.411293     -184.011551      -62.251026
 H         -68.305519     -186.106720      -63.655449
 H         -67.390305     -184.534271      -63.437744
 H         -71.404251     -186.507141      -61.207325
 H         -70.547112     -185.336456      -60.192242
 H         -67.999107     -184.965332      -60.929695
 H         -66.922997     -186.208435      -61.660866
 H         -69.229462     -187.345169      -61.989212
 H         -68.797241     -186.854996      -60.365791
