20
 generated by VMD
 C          -9.272094      -24.269718        1.557553
 N          -9.446721      -25.266861        2.051918
 H          -7.456284      -23.190048       -0.721748
 H          -8.733499      -22.695526       -1.720148
 C          -7.681656      -23.019979       -1.777461
 C          -7.514788      -24.259867       -2.606258
 C          -6.701475      -21.909746       -2.309506
 C          -7.747738      -23.984976       -4.077476
 C          -6.983184      -21.550146       -3.766202
 C          -6.949054      -22.808771       -4.638600
 H          -8.274334      -25.069080       -2.332216
 H          -6.554001      -24.800325       -2.481182
 H          -6.874893      -20.957844       -1.746801
 H          -5.666650      -22.248913       -2.229482
 H          -8.812523      -23.808514       -4.211309
 H          -7.552619      -24.899084       -4.610760
 H          -6.141079      -20.939367       -4.137020
 H          -7.916184      -20.993023       -3.888715
 H          -7.414486      -22.532732       -5.607557
 H          -5.915781      -23.101068       -4.731706
