20
 generated by VMD
 C         -33.685375      -96.074234      -25.270035
 N         -33.536362      -97.097481      -25.785788
 H         -34.710197      -94.332603      -27.348085
 H         -33.884804      -95.131470      -24.970768
 C         -34.754765      -93.962807      -28.390623
 C         -36.064571      -94.132202      -29.181955
 C         -33.562023      -93.507927      -29.160055
 C         -36.151402      -93.450211      -30.537193
 C         -33.778767      -92.586510      -30.394033
 C         -34.862358      -93.320999      -31.229101
 H         -37.007656      -93.868683      -28.656727
 H         -36.077686      -95.173149      -29.292576
 H         -32.892071      -92.997215      -28.411669
 H         -32.965130      -94.324043      -29.541462
 H         -36.555161      -92.431152      -30.385660
 H         -36.745781      -93.966133      -31.246500
 H         -32.758915      -92.679688      -30.909428
 H         -34.119167      -91.602905      -30.241388
 H         -34.918808      -92.572006      -32.115852
 H         -34.550774      -94.324074      -31.733507
