20
 generated by VMD
 C         -59.905613     -157.579559      -56.149025
 N         -60.363972     -157.495331      -57.162422
 H         -60.148815     -157.282043      -52.376373
 H         -59.560188     -157.567245      -55.112000
 C         -59.268867     -157.887466      -52.626549
 C         -57.864578     -157.511475      -52.048515
 C         -59.410843     -159.410065      -52.944992
 C         -57.510460     -158.355469      -50.945423
 C         -59.066952     -160.331848      -51.759647
 C         -57.736923     -159.861282      -51.255028
 H         -57.906944     -156.426666      -51.908127
 H         -57.150047     -157.626648      -52.853130
 H         -60.445755     -159.485596      -53.278374
 H         -58.708027     -159.804031      -53.798183
 H         -58.094585     -157.998993      -50.105988
 H         -56.502285     -158.116241      -50.632778
 H         -58.929699     -161.410339      -52.112404
 H         -59.817196     -160.442215      -50.980713
 H         -57.538731     -160.329529      -50.325630
 H         -56.879162     -160.277740      -51.961029
