20
 generated by VMD
 C         -13.923096      -28.754894       -7.160080
 N         -13.264267      -28.910673       -8.046956
 H         -11.685047      -30.321188       -4.915650
 H         -10.152515      -29.964081       -4.071196
 C         -10.787354      -30.765011       -4.394018
 C          -9.989288      -31.526072       -5.473766
 C         -11.016593      -31.754639       -3.226841
 C          -8.641134      -32.012661       -5.049462
 C          -9.620697      -32.197456       -2.716369
 C          -8.832181      -32.862736       -3.812742
 H          -9.910933      -30.815531       -6.329824
 H         -10.541836      -32.438946       -5.868504
 H         -11.681149      -31.295086       -2.436991
 H         -11.523856      -32.665604       -3.603897
 H          -7.947522      -31.227467       -4.705375
 H          -8.135818      -32.620953       -5.821655
 H          -9.639119      -32.858082       -1.872356
 H          -9.128588      -31.244329       -2.354100
 H          -7.876740      -33.262432       -3.474100
 H          -9.423845      -33.676914       -4.182623
