20
 generated by VMD
 C         -27.481220      -86.659798      -26.579899
 N         -28.438877      -85.985291      -26.685999
 H         -31.058464      -86.284508      -25.243433
 H         -26.617418      -87.424934      -26.428909
 C         -31.965691      -86.658203      -25.571510
 C         -32.786228      -87.072495      -24.468351
 C         -31.995771      -87.234154      -26.983761
 C         -34.193531      -87.451691      -24.848701
 C         -33.483982      -87.489403      -27.361582
 C         -34.299896      -88.218536      -26.264196
 H         -32.902496      -86.353622      -23.688967
 H         -32.171722      -87.968925      -24.153851
 H         -31.454746      -86.546921      -27.598366
 H         -31.384956      -88.159760      -26.886389
 H         -34.838722      -86.516113      -24.854836
 H         -34.530125      -88.078178      -23.964909
 H         -33.612404      -88.083160      -28.323704
 H         -33.991112      -86.588837      -27.537222
 H         -35.363674      -88.286804      -26.425596
 H         -33.902531      -89.264313      -26.038710
