20
 generated by VMD
 C         -22.708918      -52.993759      -12.503866
 N         -22.780781      -52.559669      -13.526636
 H         -20.451904      -54.445034      -14.469647
 H         -22.549726      -53.851521      -11.608834
 C         -19.423704      -54.234402      -13.986392
 C         -19.028225      -52.747440      -13.859086
 C         -18.492071      -55.378399      -13.546405
 C         -17.543089      -52.409981      -13.597401
 C         -17.250380      -54.851887      -12.891899
 C         -16.589794      -53.632984      -13.583043
 H         -19.687220      -52.340172      -13.090738
 H         -19.211058      -52.284618      -14.777810
 H         -18.951056      -55.985802      -12.797269
 H         -18.396734      -56.090477      -14.408440
 H         -17.451010      -51.857422      -12.640678
 H         -17.181429      -51.718327      -14.361130
 H         -16.538771      -55.630486      -12.978122
 H         -17.442448      -54.718899      -11.770249
 H         -15.724146      -53.233791      -13.097406
 H         -16.337597      -53.974041      -14.593420
