20
 generated by VMD
 C         -22.008570      -67.191589      -16.606256
 N         -21.021803      -66.912376      -16.026377
 H         -23.938168      -65.071236      -17.984991
 H         -22.866341      -67.511253      -17.041672
 C         -24.510895      -65.750000      -18.551987
 C         -23.864182      -66.341148      -19.792650
 C         -25.923590      -66.190247      -18.191702
 C         -24.403196      -67.758102      -20.138088
 C         -26.205622      -67.698975      -18.501284
 C         -25.932209      -68.038841      -19.961493
 H         -22.803877      -66.471397      -19.685646
 H         -23.853352      -65.637398      -20.648605
 H         -25.998840      -66.046524      -17.050177
 H         -26.685541      -65.413147      -18.537832
 H         -23.771441      -68.407440      -19.456640
 H         -24.021257      -68.018303      -21.140741
 H         -27.218288      -67.834969      -18.065203
 H         -25.472435      -68.339096      -17.918541
 H         -26.154734      -69.070602      -20.326231
 H         -26.510479      -67.293488      -20.533484
