20
 generated by VMD
 C         -22.675411      -55.517803      -16.760050
 N         -23.091679      -54.468960      -16.839132
 H         -19.527601      -55.512142      -14.669539
 H         -22.676846      -56.575760      -16.507511
 C         -19.669531      -56.639580      -14.600578
 C         -20.672436      -56.973183      -13.626246
 C         -18.848095      -57.658363      -15.217519
 C         -20.985586      -58.448898      -13.421350
 C         -19.103521      -59.056892      -14.815776
 C         -19.655651      -59.185646      -13.390924
 H         -21.575756      -56.547523      -14.029056
 H         -20.501078      -56.454784      -12.726831
 H         -18.905056      -57.633011      -16.249416
 H         -17.822336      -57.404404      -14.866521
 H         -21.590870      -58.688660      -14.303119
 H         -21.590111      -58.627811      -12.518724
 H         -18.255463      -59.708012      -15.011013
 H         -19.868109      -59.542324      -15.467844
 H         -19.813482      -60.254028      -13.104272
 H         -18.901848      -58.728264      -12.687492
