20
 generated by VMD
 C         -11.170935      -33.176422       -8.570455
 N         -10.678113      -33.935379       -9.268861
 H         -12.759603      -34.141514       -6.755556
 H         -12.996367      -34.837582       -5.071457
 C         -12.942646      -35.081059       -6.123003
 C         -11.669968      -36.005405       -6.266248
 C         -14.122973      -35.888489       -6.629599
 C         -11.766250      -37.372955       -5.570158
 C         -14.298491      -37.149197       -5.854556
 C         -13.114855      -38.096859       -5.875577
 H         -10.847631      -35.470379       -5.809943
 H         -11.430202      -36.134373       -7.340897
 H         -15.022761      -35.307354       -6.560630
 H         -14.010120      -35.999058       -7.720338
 H         -11.726050      -37.295132       -4.512249
 H         -10.963686      -38.020420       -5.968923
 H         -15.144233      -37.706478       -6.375176
 H         -14.686273      -36.975155       -4.842295
 H         -13.270770      -38.955334       -5.208264
 H         -12.932070      -38.595009       -6.882836
