20
 generated by VMD
 C         -18.088118      -48.553860       -7.377809
 N         -18.402632      -48.807407       -6.339319
 H         -16.363935      -48.128452      -10.199241
 H         -16.160950      -49.059616      -11.620672
 C         -16.329544      -48.046841      -11.281793
 C         -15.197062      -47.108219      -11.737440
 C         -17.730560      -47.647205      -11.800571
 C         -15.263929      -46.791321      -13.242386
 C         -17.812414      -47.485138      -13.290302
 C         -16.726162      -46.451710      -13.683667
 H         -14.198221      -47.618168      -11.555013
 H         -14.959507      -46.166019      -11.194096
 H         -18.435909      -48.420013      -11.457624
 H         -18.000631      -46.690723      -11.294292
 H         -14.926535      -47.667271      -13.828095
 H         -14.588606      -45.949406      -13.405060
 H         -18.824535      -47.143246      -13.723042
 H         -17.570730      -48.473743      -13.627250
 H         -16.727453      -46.404510      -14.750160
 H         -17.014122      -45.496784      -13.232100
