20
 generated by VMD
 C         -50.201950     -131.051422      -46.469410
 N         -50.314220     -131.351990      -47.643803
 H         -48.319698     -131.910995      -44.112747
 H         -50.365959     -130.743439      -45.390667
 C         -48.930843     -132.229156      -43.222000
 C         -49.380463     -133.689911      -43.206421
 C         -48.624950     -131.512909      -41.931305
 C         -48.670662     -134.478668      -42.187443
 C         -47.843418     -132.434799      -40.977116
 C         -48.501263     -133.754471      -40.763218
 H         -49.307930     -134.201492      -44.142864
 H         -50.450771     -133.683090      -42.900837
 H         -47.981941     -130.633987      -42.116989
 H         -49.568584     -131.231934      -41.610867
 H         -47.630253     -134.699066      -42.406120
 H         -49.113716     -135.442184      -41.905224
 H         -47.720119     -131.818741      -40.150452
 H         -46.860012     -132.563354      -41.451740
 H         -47.999905     -134.363495      -39.937893
 H         -49.478088     -133.596680      -40.328285
