20
 generated by VMD
 C         -13.582296      -45.282082       -5.794107
 N         -14.351834      -44.883766       -6.478780
 H         -15.169641      -44.359699       -9.069337
 H         -14.449893      -43.804062      -10.563341
 C         -15.408369      -44.236023      -10.163544
 C         -16.528936      -43.216030      -10.290789
 C         -15.688681      -45.663769      -10.750285
 C         -16.853434      -43.248390      -11.752734
 C         -16.199461      -45.631062      -12.174592
 C         -17.321453      -44.642914      -12.215569
 H         -16.257675      -42.172062      -10.053370
 H         -17.336355      -43.412712       -9.549066
 H         -14.888444      -46.430199      -10.624568
 H         -16.504372      -46.119610      -10.080557
 H         -15.993715      -42.938717      -12.340861
 H         -17.662539      -42.555645      -12.012487
 H         -16.592134      -46.640041      -12.413983
 H         -15.382577      -45.456139      -12.922998
 H         -17.786358      -44.565720      -13.222226
 H         -18.126324      -44.945667      -11.471268
