20
 generated by VMD
 C         -58.038578     -167.715912      -55.297318
 N         -56.962749     -168.114807      -54.978615
 H         -61.337841     -166.708237      -55.081699
 H         -59.028885     -167.353485      -55.464172
 C         -62.021687     -166.372101      -55.847805
 C         -62.367222     -167.099106      -57.186707
 C         -62.833935     -165.046326      -55.666813
 C         -63.841209     -167.401978      -57.285774
 C         -64.289703     -165.398819      -55.759155
 C         -64.704201     -166.173019      -56.987743
 H         -61.698467     -168.137772      -57.131035
 H         -62.043488     -166.615204      -58.051506
 H         -62.565681     -164.692505      -54.607651
 H         -62.469830     -164.296066      -56.324284
 H         -64.072693     -168.110367      -56.480820
 H         -64.238518     -167.869873      -58.189102
 H         -64.912613     -164.418198      -55.438610
 H         -64.528275     -166.095932      -54.825680
 H         -65.707680     -166.448441      -56.842979
 H         -64.681381     -165.387527      -57.668552
