20
 generated by VMD
 C         -13.572858      -43.183002       -6.281676
 N         -12.907593      -42.748814       -7.084727
 H         -14.720572      -44.498291       -8.618542
 H         -14.257380      -43.205109       -9.666327
 C         -15.002801      -43.942970       -9.482632
 C         -16.410133      -43.379009       -9.141397
 C         -15.147959      -44.844513      -10.701674
 C         -17.063435      -42.646191      -10.356762
 C         -15.651009      -44.044186      -11.858919
 C         -17.066141      -43.467064      -11.656374
 H         -16.450874      -42.853664       -8.133307
 H         -17.063215      -44.254356       -8.967708
 H         -14.223408      -45.442219      -10.915833
 H         -15.816588      -45.668850      -10.503057
 H         -16.555637      -41.659752      -10.475996
 H         -18.125950      -42.409588      -10.132745
 H         -15.579302      -44.728432      -12.762617
 H         -14.987779      -43.166348      -12.001715
 H         -17.295502      -42.770798      -12.465093
 H         -17.723755      -44.293461      -11.639756
