20
 generated by VMD
 C          -1.222591      -12.651978        1.251168
 N          -0.687594      -12.761773        0.280853
 H          -4.246079      -12.892053        1.261315
 H          -5.894982      -13.334010        0.637533
 C          -4.980362      -13.692569        1.197081
 C          -5.443940      -14.075720        2.558695
 C          -4.447456      -14.934191        0.475830
 C          -6.509201      -15.156461        2.586287
 C          -5.521417      -16.080326        0.450411
 C          -6.033150      -16.414013        1.862000
 H          -5.663469      -13.169783        3.191301
 H          -4.532173      -14.375848        3.159241
 H          -4.133514      -14.569348       -0.566106
 H          -3.498230      -15.336672        1.021559
 H          -7.445703      -14.766754        2.233060
 H          -6.689104      -15.380736        3.635378
 H          -5.064943      -16.971138       -0.010994
 H          -6.320122      -15.767751       -0.188969
 H          -6.773758      -17.214239        1.765940
 H          -5.208449      -16.911392        2.373779
