20
 generated by VMD
 C         -69.770294     -184.896118      -66.619957
 N         -69.011322     -184.578064      -67.422050
 H         -69.931664     -183.171585      -63.055840
 H         -70.511475     -185.261810      -65.874336
 C         -69.221977     -183.426712      -62.285324
 C         -69.552658     -184.450394      -61.204063
 C         -68.103226     -182.462570      -61.925098
 C         -68.260895     -185.203018      -60.858189
 C         -66.820839     -183.008179      -61.261238
 C         -67.271217     -184.161224      -60.259415
 H         -70.359619     -185.148804      -61.641949
 H         -70.052223     -184.046509      -60.339668
 H         -67.936981     -181.849335      -62.743835
 H         -68.461395     -181.800140      -61.093601
 H         -67.860985     -185.589951      -61.827282
 H         -68.510399     -186.129166      -60.290154
 H         -66.284142     -182.223648      -60.671471
 H         -66.113983     -183.487167      -61.988041
 H         -66.358749     -184.670456      -60.014286
 H         -67.638290     -183.672668      -59.394962
