20
 generated by VMD
 C         -15.116849      -45.958183       -7.023168
 N         -14.649640      -46.843864       -6.546706
 H         -15.478585      -44.229820       -9.154510
 H         -14.526742      -44.620251      -10.615945
 C         -15.546664      -44.555943      -10.190000
 C         -16.426073      -43.513435      -10.946158
 C         -16.164995      -45.945717      -10.257084
 C         -16.701750      -43.824070      -12.427804
 C         -16.311268      -46.270058      -11.794338
 C         -17.203863      -45.245235      -12.565981
 H         -15.962017      -42.504707      -10.845998
 H         -17.410509      -43.575687      -10.469519
 H         -15.583160      -46.620129       -9.701535
 H         -17.182507      -45.989014       -9.926067
 H         -15.749312      -43.692829      -12.958986
 H         -17.456179      -43.101078      -12.745293
 H         -16.820009      -47.198223      -11.876308
 H         -15.378116      -46.341415      -12.323627
 H         -17.308990      -45.641769      -13.581126
 H         -18.250204      -45.240074      -12.176681
