20
 generated by VMD
 C         -50.252514     -145.237244      -44.918476
 N         -49.707535     -144.474701      -44.170364
 H         -52.683998     -142.733505      -45.844604
 H         -50.557404     -145.911850      -45.765701
 C         -53.296230     -142.627640      -46.739769
 C         -52.471142     -142.872452      -47.994450
 C         -54.721470     -142.007950      -46.839272
 C         -53.395893     -142.934402      -49.324585
 C         -55.397423     -142.263596      -48.100639
 C         -54.573112     -141.952744      -49.293221
 H         -51.954079     -143.861359      -48.073082
 H         -51.791321     -142.011566      -48.046143
 H         -55.209892     -142.320709      -45.917255
 H         -54.542500     -140.922424      -46.786465
 H         -53.765923     -144.039764      -49.320263
 H         -52.846157     -142.759781      -50.310814
 H         -56.375404     -141.760696      -48.156216
 H         -55.635445     -143.285767      -48.159435
 H         -55.213455     -142.197968      -50.175945
 H         -54.055771     -140.959763      -49.399662
