20
 generated by VMD
 C         -22.713621      -52.323425      -11.787508
 N         -22.482590      -52.638950      -10.673525
 H         -19.900272      -52.079449      -13.690212
 H         -22.523190      -51.852356      -12.790387
 C         -18.959141      -52.436768      -13.858230
 C         -17.924482      -51.754276      -14.773166
 C         -18.346428      -53.210121      -12.794256
 C         -16.519003      -52.347675      -14.546684
 C         -17.211100      -52.403828      -12.149209
 C         -16.056259      -52.076485      -13.143921
 H         -17.930531      -50.621002      -14.519269
 H         -18.085125      -51.853577      -15.842848
 H         -19.076906      -53.412071      -12.041142
 H         -18.020947      -54.216381      -13.166895
 H         -15.829222      -51.957603      -15.307047
 H         -16.621367      -53.425777      -14.675416
 H         -16.717514      -53.186813      -11.432152
 H         -17.537849      -51.515659      -11.587596
 H         -15.886045      -50.993362      -12.991466
 H         -15.130555      -52.652462      -12.942598
