20
 generated by VMD
 C         -50.053329     -128.600021      -43.373409
 N         -50.710850     -129.233261      -44.127209
 H         -48.873447     -128.336243      -39.896568
 H         -49.278717     -127.996185      -42.905537
 C         -47.815964     -128.228638      -40.220791
 C         -46.791054     -129.258347      -39.961281
 C         -47.303696     -126.961037      -40.957127
 C         -45.795277     -129.504059      -41.135864
 C         -46.316505     -127.254662      -42.049305
 C         -45.214317     -128.241302      -41.703888
 H         -47.256878     -130.249130      -39.741131
 H         -46.333046     -128.981949      -39.015472
 H         -48.146034     -126.441536      -41.211758
 H         -46.871544     -126.368858      -40.048595
 H         -46.295673     -130.072601      -41.936676
 H         -45.013111     -130.013916      -40.632420
 H         -45.846516     -126.271774      -42.403610
 H         -46.889416     -127.667297      -42.935398
 H         -44.724541     -128.353455      -42.647011
 H         -44.478279     -127.733780      -41.021095
