20
 generated by VMD
 C         -49.582199     -127.173759      -40.129398
 N         -49.471069     -126.891884      -39.000607
 H         -46.593605     -126.652115      -42.426384
 H         -49.502052     -127.480003      -41.184124
 C         -46.292553     -126.219742      -41.547485
 C         -45.254314     -126.646072      -40.588242
 C         -46.758347     -124.745934      -41.520172
 C         -44.139652     -125.598351      -40.582081
 C         -45.537945     -123.895287      -41.411198
 C         -44.609375     -124.209404      -40.281273
 H         -44.876160     -127.659500      -40.846436
 H         -45.663448     -126.725128      -39.512482
 H         -47.317081     -124.481079      -42.447189
 H         -47.381134     -124.610321      -40.735695
 H         -43.763065     -125.703049      -41.578690
 H         -43.323639     -125.883888      -39.960220
 H         -45.976074     -122.884666      -41.286327
 H         -45.100456     -124.106186      -42.388985
 H         -43.795406     -123.409607      -40.262325
 H         -45.167076     -124.077614      -39.361752
