20
 generated by VMD
 C         -10.027389      -24.553190       -0.299164
 N         -10.993752      -24.982864       -0.625603
 H          -6.338501      -25.170500       -0.913739
 H          -8.088669      -25.004475       -1.207320
 C          -7.046301      -24.839386       -1.704785
 C          -6.964227      -25.710484       -2.924047
 C          -6.892277      -23.344080       -2.016051
 C          -7.927577      -25.375851       -4.036910
 C          -7.868666      -22.999481       -3.089313
 C          -7.912336      -23.844917       -4.375616
 H          -7.159584      -26.761953       -2.527941
 H          -5.991362      -25.564753       -3.392488
 H          -7.111778      -22.661245       -1.155614
 H          -5.868329      -23.195683       -2.420618
 H          -8.920145      -25.581190       -3.630432
 H          -7.631256      -25.948116       -4.925457
 H          -7.606856      -21.969164       -3.346865
 H          -8.883375      -22.932360       -2.621598
 H          -8.696947      -23.438866       -5.032828
 H          -6.945144      -23.685276       -4.873172
