20
 generated by VMD
 C         -51.195431     -145.372559      -44.171738
 N         -51.193825     -146.418594      -44.750156
 H         -53.821854     -145.156250      -47.088291
 H         -51.160313     -144.347565      -43.733398
 C         -53.654610     -144.135620      -47.389786
 C         -52.698112     -144.018433      -48.535633
 C         -54.775414     -143.007019      -47.247478
 C         -53.405949     -143.734848      -49.898563
 C         -55.424438     -142.911209      -48.576199
 C         -54.461296     -142.701721      -49.771629
 H         -52.118511     -144.941147      -48.659019
 H         -51.894695     -143.277328      -48.386101
 H         -55.628876     -143.226944      -46.506798
 H         -54.226379     -142.073517      -47.034462
 H         -53.880424     -144.661804      -50.204521
 H         -52.755867     -143.406570      -50.646557
 H         -56.030056     -142.036209      -48.489582
 H         -55.925838     -143.855194      -48.822632
 H         -55.006889     -142.555725      -50.681904
 H         -53.947186     -141.715195      -49.623692
