20
 generated by VMD
 C          -1.346781      -11.890781        1.516921
 N          -1.053137      -12.432826        0.619366
 H          -3.805064      -13.021869        0.598593
 H          -5.646023      -13.248425        0.716168
 C          -4.668360      -13.635254        0.962665
 C          -4.698032      -13.884533        2.465316
 C          -4.728607      -14.927814        0.179441
 C          -5.798794      -14.805256        2.951443
 C          -5.872855      -15.844442        0.626520
 C          -5.865201      -16.099920        2.158257
 H          -4.791307      -12.928328        3.073171
 H          -3.780740      -14.310670        2.846550
 H          -4.722820      -14.699760       -0.888647
 H          -3.778669      -15.435931        0.382755
 H          -6.775030      -14.342365        2.914304
 H          -5.611062      -15.098686        4.021162
 H          -5.785833      -16.837822        0.185630
 H          -6.873403      -15.502701        0.340844
 H          -6.773516      -16.595623        2.507248
 H          -5.012902      -16.749939        2.481761
