20
 generated by VMD
 C         -70.315628     -183.402573      -66.169403
 N         -69.253197     -183.023651      -65.972580
 H         -68.956360     -184.885666      -62.839191
 H         -71.335518     -183.719177      -66.345139
 C         -68.269295     -184.267166      -62.264225
 C         -68.321152     -184.733292      -60.852226
 C         -67.812164     -182.983337      -62.753971
 C         -67.384468     -183.953018      -59.942028
 C         -67.151581     -182.199493      -61.657322
 C         -67.534889     -182.470871      -60.165344
 H         -68.176140     -185.804352      -60.958473
 H         -69.289909     -184.471268      -60.475140
 H         -67.226501     -183.152283      -63.663773
 H         -68.684196     -182.305832      -63.108994
 H         -66.378235     -184.357010      -60.194439
 H         -67.572906     -184.307281      -58.945480
 H         -67.156044     -181.163376      -61.963322
 H         -66.047630     -182.384750      -61.616547
 H         -66.808632     -182.038651      -59.464752
 H         -68.610672     -182.117157      -60.006771
