20
 generated by VMD
 C         -60.204826     -170.855682      -55.248604
 N         -59.245628     -171.563110      -55.161602
 H         -63.533131     -170.499771      -57.093925
 H         -61.127174     -170.275421      -55.387009
 C         -63.418491     -169.482117      -56.909081
 C         -62.426754     -168.642197      -57.496067
 C         -64.688004     -168.955139      -56.531311
 C         -62.975048     -168.025162      -58.773357
 C         -65.339943     -168.266541      -57.783241
 C         -64.289703     -167.246262      -58.331413
 H         -61.445114     -169.273315      -57.808804
 H         -62.119892     -167.874710      -56.857903
 H         -65.381706     -169.638474      -56.150826
 H         -64.522591     -168.164276      -55.849407
 H         -63.248775     -168.707611      -59.641281
 H         -62.146496     -167.251282      -59.106533
 H         -66.216293     -167.739426      -57.512932
 H         -65.485733     -168.997665      -58.511219
 H         -64.653534     -166.715332      -59.181267
 H         -64.189522     -166.488525      -57.483677
