20
 generated by VMD
 C         -57.273693     -150.925110      -48.485294
 N         -58.373989     -151.381027      -48.528072
 H         -54.172016     -148.972260      -47.240719
 H         -56.260227     -150.612549      -48.384655
 C         -54.451328     -148.697647      -48.272835
 C         -53.753983     -149.581635      -49.286026
 C         -54.557545     -147.292419      -48.873314
 C         -54.379837     -149.475739      -50.726795
 C         -55.154129     -147.092499      -50.251312
 C         -54.433243     -147.985367      -51.212296
 H         -53.538666     -150.580078      -48.930031
 H         -52.679211     -149.312698      -49.497940
 H         -55.088329     -146.623901      -48.141708
 H         -53.483978     -146.926804      -48.816299
 H         -55.358532     -149.948380      -50.835960
 H         -53.712723     -150.075043      -51.385235
 H         -55.280598     -146.033783      -50.512486
 H         -56.217609     -147.524734      -50.181618
 H         -54.982594     -147.925201      -52.213104
 H         -53.381058     -147.566223      -51.309792
