20
 generated by VMD
 C         -12.491426      -27.632032       -4.637564
 N         -13.146718      -27.987705       -5.466622
 H         -11.000175      -30.617771       -2.903663
 H         -10.926537      -29.139418       -3.765313
 C         -10.249364      -29.941778       -3.401861
 C          -9.543870      -30.619387       -4.557313
 C          -9.334092      -29.266905       -2.448683
 C          -8.751337      -29.585798       -5.271639
 C          -8.386554      -28.310822       -3.175648
 C          -7.787079      -28.951220       -4.392665
 H         -10.354768      -31.082769       -5.214788
 H          -8.863716      -31.370457       -4.241249
 H          -9.883018      -28.749405       -1.669868
 H          -8.658731      -30.013744       -2.036294
 H          -9.348996      -28.805462       -5.753678
 H          -8.153492      -30.044937       -6.089061
 H          -7.630743      -28.037565       -2.372623
 H          -9.007409      -27.484943       -3.428692
 H          -7.208221      -28.258467       -4.989843
 H          -6.948134      -29.674067       -4.178656
