20
 generated by VMD
 C         -72.581451     -199.030869      -65.640625
 N         -72.694511     -199.897141      -64.866844
 H         -70.999306     -195.940338      -67.477524
 H         -72.518227     -198.115219      -66.261330
 C         -71.986359     -195.702530      -67.831078
 C         -72.839081     -194.587891      -67.193489
 C         -72.584671     -196.395355      -69.047348
 C         -74.195702     -194.514343      -67.868393
 C         -74.003090     -196.854385      -68.866783
 C         -74.932449     -195.928696      -68.009308
 H         -72.459099     -193.634201      -67.377769
 H         -72.923569     -194.908936      -66.099785
 H         -72.546234     -195.791382      -69.928482
 H         -71.955826     -197.268188      -69.147461
 H         -74.219032     -194.022003      -68.857841
 H         -74.859253     -194.024048      -67.201912
 H         -73.930252     -197.853928      -68.489555
 H         -74.445282     -196.920685      -69.891663
 H         -75.751549     -195.768768      -68.626984
 H         -75.174118     -196.570038      -66.991554
