20
 generated by VMD
 C         -66.593033     -177.918289      -56.951599
 N         -67.724312     -178.133682      -56.918514
 H         -64.538170     -176.131516      -59.607346
 H         -65.508034     -177.724014      -56.907829
 C         -64.347931     -175.090897      -59.623280
 C         -65.518143     -174.205948      -59.336033
 C         -63.102356     -174.545990      -60.378788
 C         -65.136536     -172.759430      -59.233543
 C         -63.034695     -172.981506      -60.367188
 C         -64.396202     -172.213501      -60.417412
 H         -65.912735     -174.474701      -58.257370
 H         -66.258232     -174.380676      -60.064365
 H         -62.151291     -175.033661      -59.911880
 H         -63.253834     -174.968323      -61.459286
 H         -64.563904     -172.580780      -58.298866
 H         -66.134972     -172.297302      -59.193317
 H         -62.362144     -172.693970      -61.108959
 H         -62.665359     -172.545685      -59.382633
 H         -64.399185     -171.153351      -60.353069
 H         -65.100952     -172.484161      -61.174438
