20
 generated by VMD
 C         -27.602123      -81.376785      -26.996586
 N         -28.363464      -81.933304      -27.651560
 H         -30.296442      -83.585579      -25.834930
 H         -26.876543      -80.925980      -26.396105
 C         -30.906876      -84.262848      -25.241171
 C         -30.606018      -84.225052      -23.784615
 C         -31.728806      -85.451454      -25.753922
 C         -31.855492      -84.737213      -22.879633
 C         -32.757801      -86.045700      -24.774176
 C         -32.328678      -86.031982      -23.310553
 H         -30.350899      -83.178215      -23.461750
 H         -29.759302      -84.833900      -23.458178
 H         -32.224564      -85.179909      -26.771976
 H         -30.966921      -86.264618      -25.923302
 H         -32.585087      -83.861763      -22.852987
 H         -31.517366      -84.792496      -21.849564
 H         -32.971275      -87.100136      -24.911192
 H         -33.789398      -85.562645      -24.764414
 H         -33.192955      -86.283379      -22.630733
 H         -31.551743      -86.714020      -23.108698
