20
 generated by VMD
 C         -25.625679      -71.247482      -17.101646
 N         -25.417383      -71.240707      -15.977259
 H         -24.128342      -68.944366      -18.540190
 H         -25.690855      -71.265831      -18.267469
 C         -24.634470      -69.033119      -19.537329
 C         -23.863371      -69.872414      -20.605900
 C         -25.853893      -68.297302      -19.905987
 C         -24.856762      -70.954109      -21.250877
 C         -26.704809      -69.289780      -20.579563
 C         -26.063696      -70.025307      -21.749281
 H         -23.094782      -70.530327      -20.144560
 H         -23.454458      -69.343758      -21.513174
 H         -26.266623      -67.940926      -18.920990
 H         -25.589844      -67.408241      -20.468746
 H         -25.184711      -71.553970      -20.386127
 H         -24.512289      -71.591942      -22.088881
 H         -27.669462      -68.837364      -20.924990
 H         -27.107143      -69.982773      -19.779221
 H         -26.819098      -70.597435      -22.235916
 H         -25.874729      -69.197845      -22.432461
