20
 generated by VMD
 C         -30.542448      -93.871727      -25.367958
 N         -29.405172      -93.693962      -25.078310
 H         -33.752827      -92.345528      -26.640970
 H         -31.542767      -93.983002      -25.710375
 C         -34.197903      -91.893051      -27.543346
 C         -35.710613      -92.259583      -27.820131
 C         -33.401669      -91.359360      -28.677698
 C         -36.428753      -91.406898      -28.933826
 C         -34.132767      -90.421776      -29.614965
 C         -35.513851      -91.046852      -30.113941
 H         -36.243980      -91.963669      -26.953989
 H         -35.669128      -93.297539      -27.914711
 H         -32.662544      -90.789162      -28.117662
 H         -32.844654      -92.120567      -29.169182
 H         -37.069847      -90.553986      -28.628813
 H         -37.081299      -92.100037      -29.469530
 H         -33.501595      -90.226372      -30.501656
 H         -34.392715      -89.406509      -29.164429
 H         -36.022522      -90.359467      -30.763222
 H         -35.077370      -91.857094      -30.655354
