20
 generated by VMD
 C         -68.791786     -180.316650      -62.432747
 N         -69.861656     -180.683929      -62.170891
 H         -67.135620     -180.666901      -59.381660
 H         -67.738289     -180.044891      -62.687683
 C         -66.457558     -179.877335      -59.831669
 C         -65.364403     -180.170715      -60.716469
 C         -66.346939     -178.616211      -59.054596
 C         -65.227646     -178.896118      -61.727249
 C         -66.324440     -177.467972      -60.005112
 C         -65.139923     -177.500015      -60.947956
 H         -65.697708     -180.970627      -61.319687
 H         -64.461243     -180.494843      -60.309555
 H         -67.229309     -178.655869      -58.476154
 H         -65.489769     -178.582291      -58.281868
 H         -65.986702     -178.853333      -62.463139
 H         -64.298653     -179.142258      -62.201237
 H         -66.255798     -176.548447      -59.353539
 H         -67.239838     -177.316818      -60.586464
 H         -64.961784     -176.686295      -61.666275
 H         -64.243385     -177.433838      -60.556808
