20
 generated by VMD
 C         -40.429844     -117.716309      -34.625145
 N         -39.442841     -117.200768      -35.016403
 H         -42.068180     -116.610886      -36.891262
 H         -41.290188     -118.221931      -34.266075
 C         -43.006310     -116.717651      -37.427246
 C         -42.861320     -116.724892      -38.924473
 C         -44.265942     -116.183342      -36.823898
 C         -44.079361     -117.375687      -39.609512
 C         -45.439041     -116.939827      -37.312763
 C         -45.338573     -116.843590      -38.981346
 H         -41.944199     -117.246086      -39.110592
 H         -42.835163     -115.701675      -39.208603
 H         -44.231380     -116.353821      -35.652035
 H         -44.358021     -115.083725      -36.922112
 H         -43.960583     -118.496796      -39.472282
 H         -43.926311     -117.094711      -40.709507
 H         -46.431973     -116.596786      -37.048820
 H         -45.534000     -117.916794      -36.930599
 H         -46.051468     -117.459679      -39.335999
 H         -45.480324     -115.799957      -39.177670
