20
 generated by VMD
 C         -22.954166      -55.213295      -15.082843
 N         -22.788694      -55.075363      -16.216057
 H         -19.226627      -54.328388      -15.337508
 H         -23.054688      -55.501713      -14.061778
 C         -19.450884      -55.238228      -14.754287
 C         -18.864563      -55.145313      -13.458138
 C         -19.563810      -56.544781      -15.444090
 C         -19.446489      -56.210793      -12.605659
 C         -19.276014      -57.810047      -14.574970
 C         -19.004677      -57.629414      -13.057193
 H         -19.139109      -54.206158      -12.956190
 H         -17.740555      -55.030876      -13.553182
 H         -20.492388      -56.537292      -15.960933
 H         -18.943342      -56.649921      -16.407322
 H         -20.548250      -56.189133      -12.578949
 H         -19.032923      -55.943981      -11.626123
 H         -18.371426      -58.301983      -14.995640
 H         -20.124250      -58.449390      -14.714493
 H         -19.498928      -58.353447      -12.422248
 H         -17.939100      -57.642303      -12.784688
