20
 generated by VMD
 C         -16.508272      -47.684059       -7.284420
 N         -16.198166      -46.621296       -7.231360
 H         -16.967299      -48.294228      -10.211037
 H         -15.565567      -48.244942      -11.302083
 C         -16.505217      -47.777599      -11.017949
 C         -16.248489      -46.321888      -10.554327
 C         -17.436049      -47.738411      -12.239956
 C         -15.903330      -45.310009      -11.587119
 C         -16.973656      -46.855499      -13.407007
 C         -16.851028      -45.446522      -12.772063
 H         -15.467274      -46.327419       -9.783340
 H         -17.142115      -45.911613       -9.996764
 H         -17.604576      -48.760948      -12.622982
 H         -18.485977      -47.437164      -11.965963
 H         -14.838381      -45.417053      -11.897231
 H         -15.906033      -44.311050      -11.111044
 H         -17.609425      -47.086075      -14.265276
 H         -15.959965      -47.098454      -13.699896
 H         -16.584463      -44.689907      -13.486624
 H         -17.847971      -45.060474      -12.471267
