20
 generated by VMD
 C         -18.333220      -50.206436       -9.514940
 N         -19.426744      -50.383415       -9.386845
 H         -16.308472      -47.042645      -10.124076
 H         -17.617706      -48.334053      -10.243808
 C         -16.791758      -47.763706      -10.826373
 C         -15.702576      -48.670551      -11.451496
 C         -17.508081      -46.944195      -11.927017
 C         -16.236027      -49.539856      -12.603704
 C         -18.018856      -47.822117      -13.056911
 C         -16.968885      -48.812431      -13.676693
 H         -15.280943      -49.305027      -10.593686
 H         -14.785329      -48.187897      -11.808405
 H         -18.298538      -46.274738      -11.637048
 H         -16.736391      -46.316528      -12.364191
 H         -16.810980      -50.405075      -12.190503
 H         -15.419806      -50.095188      -13.088657
 H         -18.491383      -47.299160      -13.938536
 H         -18.815533      -48.360214      -12.642455
 H         -17.533129      -49.541183      -14.349472
 H         -16.171658      -48.264458      -14.317123
