20
 generated by VMD
 C         -61.641403     -154.697708      -53.785160
 N         -62.223618     -155.616852      -54.044182
 H         -58.184765     -155.412018      -51.913113
 H         -61.002316     -153.939468      -53.454060
 C         -57.250477     -154.930801      -51.618168
 C         -57.167873     -154.368256      -50.286430
 C         -56.053158     -154.776413      -52.491577
 C         -56.044369     -154.745590      -49.461533
 C         -54.851143     -155.136566      -51.624947
 C         -54.774799     -154.512268      -50.235050
 H         -58.173630     -154.596329      -49.910423
 H         -57.089649     -153.298996      -50.234043
 H         -56.243389     -155.370789      -53.422993
 H         -55.971661     -153.678711      -52.831120
 H         -56.059208     -155.766907      -49.053406
 H         -56.170086     -154.158676      -48.506424
 H         -53.930889     -155.015503      -52.187057
 H         -54.847675     -156.223083      -51.410908
 H         -53.988232     -155.059509      -49.615311
 H         -54.705650     -153.467392      -50.246113
