20
 generated by VMD
 C         -68.795982     -180.383255      -62.462173
 N         -69.909164     -180.626419      -62.155396
 H         -67.051285     -180.819229      -59.546352
 H         -67.821930     -180.116043      -62.830265
 C         -66.450020     -179.958527      -59.807190
 C         -65.328087     -180.133514      -60.799656
 C         -66.489967     -178.650787      -59.097698
 C         -65.198082     -178.936386      -61.692802
 C         -66.315414     -177.435287      -60.037300
 C         -65.089485     -177.653137      -60.918327
 H         -65.218468     -181.095200      -61.226505
 H         -64.540886     -180.000519      -60.139534
 H         -67.352196     -178.470551      -58.517982
 H         -65.577957     -178.660828      -58.406132
 H         -66.026405     -178.886292      -62.365986
 H         -64.294525     -178.890106      -62.282940
 H         -66.301414     -176.438065      -59.523403
 H         -67.208794     -177.460403      -60.662342
 H         -65.207405     -176.819305      -61.592979
 H         -64.351906     -177.661163      -60.266338
