20
 generated by VMD
 C         -60.474808     -169.837433      -55.160103
 N         -59.370144     -169.644684      -55.405666
 H         -63.448616     -170.731400      -56.839272
 H         -61.509819     -170.073013      -54.909298
 C         -63.219837     -169.635818      -56.875694
 C         -62.528393     -169.056152      -58.084625
 C         -64.063881     -168.740372      -56.080921
 C         -63.150093     -167.864243      -58.762402
 C         -64.663849     -167.464371      -56.724106
 C         -63.625725     -166.751556      -57.709412
 H         -62.561180     -169.860626      -58.924553
 H         -61.520794     -168.950714      -57.838947
 H         -64.892509     -169.397980      -55.698021
 H         -63.373985     -168.536880      -55.180130
 H         -64.126640     -167.990601      -59.276093
 H         -62.374084     -167.406998      -59.408989
 H         -65.136330     -166.753784      -56.019688
 H         -65.485786     -167.752365      -57.439751
 H         -64.044006     -165.907745      -58.302986
 H         -62.833084     -166.544510      -57.051270
