20
 generated by VMD
 C         -70.103470     -198.440079      -64.251663
 N         -69.922340     -198.169678      -65.357697
 H         -73.049789     -196.554916      -66.185677
 H         -70.309296     -198.561691      -63.203762
 C         -73.568451     -195.796829      -66.889999
 C         -73.208664     -194.446869      -66.437378
 C         -74.450264     -196.129120      -68.026329
 C         -73.158905     -193.477539      -67.644760
 C         -74.838051     -194.822556      -68.829552
 C         -73.608574     -193.931107      -68.984863
 H         -72.226814     -194.418015      -66.016220
 H         -74.110649     -194.047363      -65.799927
 H         -73.924835     -196.782791      -68.667152
 H         -75.329254     -196.519943      -67.616852
 H         -72.115143     -193.150146      -67.771301
 H         -73.701035     -192.584595      -67.411026
 H         -75.677795     -194.291824      -68.350662
 H         -75.231171     -195.315811      -69.742493
 H         -72.799088     -194.459274      -69.602066
 H         -73.923874     -193.126892      -69.497925
