20
 generated by VMD
 C         -62.852493     -172.144272      -55.275467
 N         -62.453800     -173.208359      -55.177227
 H         -61.579716     -171.173492      -58.906021
 H         -63.090195     -171.110046      -55.486523
 C         -62.487019     -170.637650      -58.766232
 C         -62.410175     -169.462463      -57.912315
 C         -63.728077     -171.368942      -58.862476
 C         -63.612671     -168.577133      -57.991833
 C         -64.907310     -170.418777      -59.106297
 C         -64.878876     -169.453995      -57.886337
 H         -61.480587     -168.911560      -58.242401
 H         -62.235378     -169.839325      -56.983150
 H         -63.795940     -172.013474      -59.703903
 H         -63.854923     -171.858231      -57.929634
 H         -63.704979     -167.969879      -58.930759
 H         -63.520374     -167.813065      -57.099167
 H         -65.911194     -170.986984      -59.117264
 H         -64.754463     -169.889465      -60.121838
 H         -65.705933     -168.719803      -57.856098
 H         -64.946327     -169.914612      -56.964676
