20
 generated by VMD
 C         -40.475952     -106.882111      -37.511364
 N         -39.386494     -106.644554      -37.863808
 H         -38.644432     -108.087517      -34.299435
 H         -41.570297     -106.942406      -37.380974
 C         -39.285507     -108.903534      -34.064373
 C         -38.643570     -110.067818      -33.238380
 C         -40.753853     -108.806541      -34.301266
 C         -39.705860     -110.608894      -32.170723
 C         -41.675545     -109.456375      -33.280079
 C         -41.058311     -110.646187      -32.714344
 H         -37.892773     -109.771446      -32.604702
 H         -38.326553     -110.873497      -33.877182
 H         -41.073864     -107.687599      -34.356995
 H         -40.949364     -109.221634      -35.320686
 H         -39.812668     -109.902000      -31.205338
 H         -39.321075     -111.562897      -31.735645
 H         -42.653625     -109.770065      -33.679768
 H         -41.734947     -108.635811      -32.488476
 H         -41.735046     -110.946365      -31.969940
 H         -41.105827     -111.477753      -33.465496
