20
 generated by VMD
 C          -9.270309      -24.256296        1.597239
 N          -9.416709      -25.250494        2.072678
 H          -7.562137      -23.309170       -0.762855
 H          -8.732375      -22.694962       -1.702745
 C          -7.689146      -23.012808       -1.815291
 C          -7.513671      -24.252909       -2.638757
 C          -6.727245      -21.916451       -2.272485
 C          -7.753293      -23.955875       -4.082474
 C          -6.979915      -21.544317       -3.769869
 C          -6.931745      -22.810938       -4.629679
 H          -8.286597      -24.870188       -2.263803
 H          -6.498736      -24.704874       -2.520980
 H          -6.886253      -21.003031       -1.737077
 H          -5.667565      -22.226240       -2.164198
 H          -8.815344      -23.740610       -4.286282
 H          -7.369462      -24.905821       -4.523317
 H          -6.160910      -20.922050       -4.125274
 H          -7.909597      -20.964569       -3.800442
 H          -7.388520      -22.619204       -5.606862
 H          -5.850706      -23.034092       -4.874243
