20
 generated by VMD
 C         -64.583290     -175.289078      -55.895393
 N         -63.782852     -175.660019      -56.656734
 H         -65.781403     -174.048996      -58.821751
 H         -65.339684     -174.906799      -55.249321
 C         -65.053215     -173.268997      -58.768570
 C         -65.426102     -171.934235      -58.279221
 C         -64.086044     -173.254211      -59.881104
 C         -64.353218     -170.987823      -58.317532
 C         -63.168385     -172.055923      -60.139050
 C         -63.785118     -170.753860      -59.723694
 H         -65.855812     -172.134399      -57.305386
 H         -66.231346     -171.708389      -58.904556
 H         -63.346333     -174.156509      -59.694004
 H         -64.753670     -173.475296      -60.822544
 H         -63.558868     -171.364304      -57.645370
 H         -64.704987     -170.049347      -57.858974
 H         -62.770416     -171.983459      -61.145210
 H         -62.242229     -172.335312      -59.580658
 H         -63.105705     -169.963013      -59.835312
 H         -64.567795     -170.551971      -60.452705
