20
 generated by VMD
 C         -40.477680     -100.240700      -30.301502
 N         -41.397442     -100.513763      -29.626228
 H         -37.295845     -101.123177      -30.677197
 H         -39.730392      -99.745239      -30.927475
 C         -36.414280     -100.574455      -30.839750
 C         -36.233089     -100.081894      -32.392284
 C         -35.356831     -100.263664      -29.722486
 C         -35.282513      -98.847702      -32.516182
 C         -34.334927      -99.178162      -30.017717
 C         -34.097042      -98.899132      -31.550568
 H         -37.232849      -99.754707      -32.763885
 H         -35.923565     -100.840141      -33.090359
 H         -35.810715     -100.016457      -28.769327
 H         -34.741684     -101.116425      -29.531050
 H         -35.753502      -97.887810      -32.255157
 H         -34.896221      -98.846031      -33.514866
 H         -33.458199      -99.270737      -29.434546
 H         -34.795631      -98.210358      -29.594580
 H         -33.404037      -97.965881      -31.535902
 H         -33.340572      -99.607658      -31.858452
