20
 generated by VMD
 C         -40.537743     -118.916199      -35.550468
 N         -39.618706     -118.463608      -35.031261
 H         -43.930138     -117.255058      -36.052277
 H         -41.461292     -119.075996      -35.987053
 C         -44.069839     -117.066277      -37.095612
 C         -42.984238     -117.513519      -38.088242
 C         -45.220192     -116.268311      -37.556435
 C         -43.671028     -118.226639      -39.169197
 C         -45.915901     -117.102448      -38.574173
 C         -44.943672     -117.601990      -39.609531
 H         -42.392277     -118.130608      -37.447426
 H         -42.457962     -116.660553      -38.496368
 H         -45.961147     -115.903343      -36.879566
 H         -44.845062     -115.347710      -38.176659
 H         -43.894001     -119.276459      -38.817066
 H         -42.862709     -118.328102      -39.837421
 H         -46.826813     -116.680862      -39.024204
 H         -46.382881     -118.131454      -38.266479
 H         -45.371674     -118.304855      -40.371967
 H         -44.619007     -116.671898      -40.271141
