20
 generated by VMD
 C          -1.623598       -8.032449        0.784822
 N          -2.349808       -7.619821        0.076126
 H          -3.617507       -9.237874        2.434951
 H          -2.250911      -10.440829        2.036279
 C          -3.116529      -10.253601        2.642746
 C          -4.146685      -11.341233        2.456930
 C          -2.816282      -10.106421        4.148167
 C          -3.582692      -12.689658        2.996963
 C          -2.275841      -11.376892        4.777213
 C          -3.190809      -12.612215        4.454896
 H          -4.361892      -11.485649        1.363233
 H          -5.101883      -11.127678        3.074776
 H          -2.132190       -9.292386        4.359681
 H          -3.710848       -9.705855        4.647139
 H          -2.760268      -12.937742        2.315782
 H          -4.378965      -13.407529        2.794632
 H          -2.228729      -11.194536        5.828637
 H          -1.219966      -11.546166        4.545690
 H          -2.661604      -13.483457        4.797246
 H          -4.103025      -12.425566        5.034142
