20
 generated by VMD
 C         -58.810749     -158.864990      -58.087143
 N         -58.598812     -159.921356      -57.515617
 H         -58.805569     -160.904266      -54.674152
 H         -59.027893     -157.941666      -58.665226
 C         -59.423748     -161.492294      -53.965820
 C         -58.771629     -161.824631      -52.592342
 C         -60.785854     -161.981567      -54.364605
 C         -59.737980     -161.573120      -51.478260
 C         -61.691319     -161.881424      -53.145874
 C         -61.088314     -162.296280      -51.772362
 H         -57.922081     -161.211090      -52.282143
 H         -58.533455     -162.983124      -52.706150
 H         -61.297169     -161.475510      -55.147961
 H         -60.608208     -162.989395      -54.661968
 H         -59.948841     -160.520706      -51.263149
 H         -59.371395     -161.896774      -50.515270
 H         -62.527187     -162.598343      -53.456673
 H         -62.215504     -160.863281      -53.080494
 H         -61.837479     -162.272263      -51.024200
 H         -60.797783     -163.374893      -51.902935
