20
 generated by VMD
 C         -49.732628     -127.751961      -40.345211
 N         -50.661858     -127.818527      -41.004513
 H         -46.839710     -127.334480      -42.321114
 H         -48.966564     -127.716324      -39.588825
 C         -46.736530     -126.805786      -41.311668
 C         -45.868088     -127.271194      -40.260624
 C         -46.835197     -125.300827      -41.468384
 C         -44.407234     -126.747696      -40.570530
 C         -45.477970     -124.803719      -41.796719
 C         -44.398682     -125.232635      -40.766182
 H         -45.869392     -128.369324      -40.303246
 H         -46.063141     -126.900963      -39.300369
 H         -47.662163     -125.020325      -42.168789
 H         -47.346237     -124.751175      -40.628128
 H         -44.232327     -127.321785      -41.484947
 H         -43.628872     -127.099312      -39.858940
 H         -45.692169     -123.744797      -41.938023
 H         -45.144508     -125.174873      -42.836842
 H         -43.477215     -124.903732      -41.192814
 H         -44.542664     -124.653610      -39.846233
