20
 generated by VMD
 C         -68.312912     -193.583527      -65.090485
 N         -68.316010     -194.750107      -65.357445
 H         -70.682281     -192.648727      -67.472206
 H         -68.152344     -192.532104      -64.943527
 C         -71.625832     -192.468445      -66.962234
 C         -71.834641     -191.023666      -66.359390
 C         -72.751953     -193.464325      -66.787125
 C         -73.297768     -190.762817      -66.104584
 C         -73.542435     -193.352798      -65.542374
 C         -74.047981     -191.886810      -65.327904
 H         -71.369614     -190.339691      -67.169334
 H         -71.178108     -190.902313      -65.566689
 H         -73.542641     -193.329453      -67.565651
 H         -72.411629     -194.468903      -66.994751
 H         -73.711922     -190.791992      -67.138756
 H         -73.442703     -189.752106      -65.626396
 H         -72.936539     -193.579376      -64.666786
 H         -74.466263     -194.033585      -65.546150
 H         -75.155647     -191.844269      -65.772263
 H         -74.175323     -191.670654      -64.317726
