20
 generated by VMD
 C         -59.596619     -151.995148      -49.498653
 N         -58.673870     -152.358673      -50.206009
 H         -56.864864     -150.597473      -48.899658
 H         -60.362160     -151.798721      -48.776756
 C         -55.766964     -150.481888      -49.101971
 C         -54.797215     -151.459518      -49.716343
 C         -55.398876     -149.127029      -49.164616
 C         -54.208355     -151.100937      -51.121468
 C         -54.841225     -148.705978      -50.504368
 C         -53.776031     -149.649597      -51.115940
 H         -55.373127     -152.351044      -49.710552
 H         -53.855476     -151.502579      -49.088856
 H         -56.213760     -148.442490      -48.923767
 H         -54.664600     -148.845856      -48.436665
 H         -54.908859     -151.276840      -51.963226
 H         -53.365841     -151.772018      -51.139229
 H         -54.498745     -147.739990      -50.492603
 H         -55.688816     -148.565948      -51.322369
 H         -53.255199     -149.301041      -52.072601
 H         -52.948593     -149.536285      -50.346630
