20
 generated by VMD
 C         -28.482349      -74.089973      -18.616652
 N         -29.348497      -73.514748      -18.132256
 H         -26.040777      -72.540909      -18.897404
 H         -27.651403      -74.672539      -19.140226
 C         -25.550892      -72.347725      -19.868917
 C         -24.789604      -73.301697      -20.704941
 C         -25.737516      -70.922218      -20.484167
 C         -25.451738      -73.441673      -21.987505
 C         -26.275494      -71.055077      -21.936028
 C         -25.445415      -72.033012      -22.825867
 H         -24.655897      -74.240845      -20.052410
 H         -23.732985      -72.881744      -20.754295
 H         -26.321480      -70.382156      -19.768705
 H         -24.736664      -70.392494      -20.458303
 H         -26.533689      -73.695671      -21.995884
 H         -24.964016      -74.209755      -22.610508
 H         -26.328581      -70.056290      -22.563738
 H         -27.352793      -71.385605      -21.867531
 H         -25.702976      -72.067093      -23.890545
 H         -24.415836      -71.712227      -22.706160
