20
 generated by VMD
 C         -29.387939      -80.046577      -26.611855
 N         -29.835369      -80.178459      -27.678093
 H         -28.279449      -82.667938      -24.716286
 H         -28.877237      -80.024498      -25.659922
 C         -29.262785      -82.972931      -24.228539
 C         -29.288759      -82.794846      -22.773233
 C         -29.987190      -84.068359      -24.856686
 C         -30.687389      -82.862770      -22.255581
 C         -31.437220      -84.243462      -24.369976
 C         -31.544796      -84.145866      -22.782501
 H         -28.764238      -81.855103      -22.394876
 H         -28.816336      -83.637756      -22.274397
 H         -29.791943      -83.954201      -25.887644
 H         -29.482977      -85.018242      -24.649166
 H         -31.221136      -81.894875      -22.418606
 H         -30.761051      -82.932564      -21.179388
 H         -31.842157      -85.028633      -24.921646
 H         -31.953291      -83.356461      -24.816950
 H         -32.628288      -84.121857      -22.494467
 H         -31.109261      -84.991875      -22.321907
