20
 generated by VMD
 C         -27.469616      -84.586853      -26.284061
 N         -28.021269      -85.333473      -26.961674
 H         -31.294825      -84.632950      -26.068104
 H         -27.038891      -83.761238      -25.617502
 C         -31.940252      -85.478401      -25.846725
 C         -32.160465      -85.915665      -24.354448
 C         -32.192966      -86.574089      -26.912977
 C         -33.417416      -86.810974      -24.177483
 C         -33.354969      -87.414009      -26.528013
 C         -33.527805      -87.911674      -25.179342
 H         -32.371346      -85.023415      -23.659716
 H         -31.392027      -86.514839      -23.892752
 H         -32.337715      -86.087463      -27.879187
 H         -31.189390      -87.138557      -27.045427
 H         -34.274464      -86.154335      -24.228209
 H         -33.337551      -87.297531      -23.249704
 H         -33.338303      -88.267426      -27.141518
 H         -34.225693      -86.845253      -26.889788
 H         -34.529575      -88.375488      -25.127829
 H         -32.910458      -88.727188      -24.925289
