20
 generated by VMD
 C         -70.008408     -183.318039      -65.453247
 N         -69.530113     -182.426697      -65.981392
 H         -67.942619     -185.005936      -63.010662
 H         -70.459671     -184.151398      -64.852448
 C         -67.823082     -184.226120      -62.274513
 C         -68.018509     -184.523773      -60.810448
 C         -68.031982     -182.814194      -62.635273
 C         -67.347740     -183.574585      -59.831470
 C         -67.151566     -181.856827      -61.788803
 C         -67.281204     -182.163101      -60.277012
 H         -67.640938     -185.544403      -60.531853
 H         -69.026146     -184.615738      -60.415974
 H         -67.838272     -182.828674      -63.703701
 H         -69.053940     -182.495483      -62.448338
 H         -66.360939     -183.909744      -59.478355
 H         -67.917122     -183.527924      -58.860107
 H         -67.538986     -180.846756      -62.028652
 H         -66.115501     -181.923019      -61.978039
 H         -66.571175     -181.427094      -59.710472
 H         -68.274025     -181.682358      -60.113388
