20
 generated by VMD
 C          -1.670291      -13.058555        0.635381
 N          -0.861803      -13.827297        0.687332
 H          -3.864609      -14.396679        1.818519
 H          -4.889674      -14.227669        0.449839
 C          -4.720712      -14.833186        1.305861
 C          -6.010330      -14.719135        2.087841
 C          -4.372699      -16.333153        0.961386
 C          -7.119645      -15.282305        1.363767
 C          -5.555314      -17.047825        0.241413
 C          -6.865706      -16.802155        1.005813
 H          -6.195894      -13.686014        2.395097
 H          -5.769917      -15.191090        3.088853
 H          -3.425102      -16.418299        0.351634
 H          -4.222611      -16.910555        1.950630
 H          -7.334081      -14.761109        0.448742
 H          -8.014478      -15.200660        1.935273
 H          -5.314516      -18.097525        0.154703
 H          -5.639217      -16.662252       -0.761078
 H          -7.690231      -17.095766        0.317021
 H          -6.987493      -17.447813        1.874847
