20
 generated by VMD
 C         -75.178299     -201.309860      -66.315941
 N         -75.589706     -202.163956      -65.686958
 H         -76.281456     -199.258377      -69.405197
 H         -74.938255     -200.641129      -67.151787
 C         -75.235252     -199.071457      -69.274872
 C         -74.849899     -198.192657      -68.103241
 C         -74.123779     -199.714645      -70.046417
 C         -73.368446     -197.971771      -68.146416
 C         -73.100189     -198.676941      -70.506859
 C         -72.875671     -197.566406      -69.463997
 H         -75.271538     -198.440720      -67.185097
 H         -75.431778     -197.256134      -68.253990
 H         -73.631706     -200.418488      -69.337555
 H         -74.466476     -200.145370      -70.998634
 H         -72.829597     -198.839478      -67.790657
 H         -73.249611     -197.165588      -67.508888
 H         -73.402222     -198.144562      -71.439758
 H         -72.254662     -199.282410      -70.732147
 H         -71.789246     -197.327988      -69.171684
 H         -73.230713     -196.594849      -69.753166
