20
 generated by VMD
 C         -79.395653     -205.477814      -70.874489
 N         -80.337372     -205.929306      -71.321159
 H         -77.165565     -202.973831      -70.492859
 H         -78.404945     -204.954636      -70.718018
 C         -76.148705     -203.275711      -70.300232
 C         -75.284821     -202.083679      -70.216774
 C         -75.738480     -204.667221      -69.865143
 C         -73.881226     -202.485489      -70.560760
 C         -74.510368     -204.543503      -69.059341
 C         -73.450539     -203.788071      -69.804291
 H         -75.535027     -201.585052      -69.233917
 H         -75.635979     -201.399597      -70.960945
 H         -76.471642     -205.117264      -69.156265
 H         -75.596909     -205.261597      -70.839943
 H         -73.159149     -201.725739      -70.251945
 H         -73.745071     -202.733978      -71.584663
 H         -74.123886     -205.541733      -68.884750
 H         -74.706764     -204.095123      -68.058266
 H         -72.714516     -203.526566      -69.116318
 H         -72.942719     -204.410645      -70.548851
