20
 generated by VMD
 C         -69.740494     -180.920547      -61.245758
 N         -69.148216     -180.425735      -62.103565
 H         -66.738892     -179.824280      -59.262451
 H         -70.403122     -181.394028      -60.488838
 C         -66.172760     -179.047714      -59.710323
 C         -65.604980     -179.253036      -61.087257
 C         -65.808601     -177.953125      -58.867435
 C         -65.248978     -177.909119      -61.764477
 C         -65.489868     -176.582916      -59.652905
 C         -64.531265     -176.892838      -60.820232
 H         -66.230423     -179.959656      -61.681698
 H         -64.805191     -179.951752      -60.887573
 H         -66.655128     -177.656754      -58.187317
 H         -64.976524     -178.305099      -58.230801
 H         -66.185707     -177.361984      -61.912647
 H         -64.567299     -178.121307      -62.583015
 H         -65.073509     -175.872055      -58.929337
 H         -66.488327     -176.149872      -59.915817
 H         -63.989281     -175.971008      -61.135719
 H         -63.693134     -177.516937      -60.276905
