20
 generated by VMD
 C         -50.106960     -144.734528      -44.434021
 N         -49.313530     -143.909943      -44.821297
 H         -52.524929     -142.129883      -45.643242
 H         -50.777493     -145.367462      -43.900524
 C         -53.069160     -142.197845      -46.590092
 C         -52.321289     -142.301056      -47.946873
 C         -54.465080     -141.640503      -46.578167
 C         -53.306126     -142.552124      -49.120144
 C         -55.330353     -142.045517      -47.747852
 C         -54.641289     -141.820343      -49.029259
 H         -51.490559     -142.909607      -48.007374
 H         -51.854988     -141.359283      -48.131729
 H         -54.893326     -141.934311      -45.635574
 H         -54.350838     -140.655121      -46.414345
 H         -53.534916     -143.637924      -49.005478
 H         -52.934940     -142.449951      -50.177921
 H         -56.120953     -141.361465      -47.633125
 H         -55.634708     -143.080093      -47.820618
 H         -55.193027     -142.248337      -49.826019
 H         -54.603874     -140.784592      -49.219551
