20
 generated by VMD
 C         -56.406212     -150.082382      -47.693447
 N         -57.559875     -150.327713      -47.652279
 H         -53.336742     -148.063202      -47.484219
 H         -55.343555     -149.853714      -47.712280
 C         -53.567200     -147.697876      -48.418262
 C         -53.139343     -148.538727      -49.652966
 C         -54.555885     -146.595184      -48.474125
 C         -54.115700     -148.681854      -50.753315
 C         -55.463501     -146.694687      -49.646397
 C         -54.986866     -147.368591      -50.970387
 H         -52.825153     -149.651535      -49.299129
 H         -52.151306     -148.136856      -49.807831
 H         -54.998535     -146.528641      -47.445107
 H         -54.016884     -145.632584      -48.588520
 H         -54.761333     -149.521301      -50.367725
 H         -53.691608     -149.134293      -51.646214
 H         -56.015770     -145.889923      -49.918118
 H         -56.298855     -147.365845      -49.294434
 H         -55.858898     -147.677567      -51.545086
 H         -54.412945     -146.659775      -51.565197
