20
 generated by VMD
 C         -12.354973      -32.143093       -8.670606
 N         -12.700974      -31.126480       -8.887547
 H         -10.535931      -34.605122       -7.360389
 H         -11.337875      -33.621414       -6.219549
 C         -11.109387      -34.643997       -6.471871
 C         -10.387850      -35.297672       -5.294489
 C         -12.377612      -35.414230       -6.767416
 C         -11.238164      -35.502617       -4.064155
 C         -13.268912      -35.615891       -5.598997
 C         -12.508446      -36.275036       -4.467090
 H          -9.466586      -34.704952       -5.147356
 H          -9.946466      -36.238358       -5.642501
 H         -12.933552      -34.974583       -7.618686
 H         -12.097091      -36.402084       -7.144516
 H         -11.439369      -34.529766       -3.601898
 H         -10.772157      -36.041470       -3.225984
 H         -14.039645      -36.283295       -5.870000
 H         -13.842772      -34.724339       -5.206267
 H         -13.248765      -36.335014       -3.580102
 H         -12.205162      -37.297314       -4.727681
