20
 generated by VMD
 C         -59.468941     -169.186493      -55.799339
 N         -59.668327     -168.573944      -54.822758
 H         -62.714909     -169.910858      -56.032490
 H         -59.382164     -169.622208      -56.781025
 C         -63.017788     -169.048004      -56.579388
 C         -62.841667     -168.793610      -58.021675
 C         -63.241043     -168.019714      -55.637337
 C         -63.581615     -167.654434      -58.543606
 C         -64.114731     -166.841904      -56.170872
 C         -63.551418     -166.445511      -57.566704
 H         -63.057846     -169.854507      -58.502476
 H         -61.846149     -168.677414      -58.215870
 H         -63.867649     -168.344528      -54.675190
 H         -62.278908     -167.507858      -55.248440
 H         -64.599487     -167.861618      -58.797634
 H         -63.016788     -167.485794      -59.430435
 H         -64.064941     -166.022079      -55.480217
 H         -65.220322     -167.092270      -56.113216
 H         -64.302361     -165.699203      -57.993446
 H         -62.560825     -165.898468      -57.585808
