20
 generated by VMD
 C         -20.181572      -61.554760      -16.501041
 N         -19.630709      -61.082359      -17.399078
 H         -21.767487      -64.993652      -17.154295
 H         -20.759264      -62.082851      -15.866265
 C         -22.693438      -64.451347      -17.214323
 C         -23.197496      -63.895821      -18.560890
 C         -23.499172      -64.601921      -16.010872
 C         -24.538074      -64.598564      -18.757853
 C         -24.812286      -65.335838      -16.305021
 C         -25.464491      -64.666977      -17.501192
 H         -22.586519      -64.317947      -19.375269
 H         -23.379105      -62.765335      -18.597235
 H         -22.975046      -65.078842      -15.185563
 H         -23.912914      -63.618073      -15.617685
 H         -24.378239      -65.671371      -19.034836
 H         -25.102255      -64.207962      -19.580923
 H         -25.555626      -65.266792      -15.493355
 H         -24.760048      -66.436333      -16.401670
 H         -26.402029      -65.085381      -17.678360
 H         -25.721298      -63.707664      -17.084686
