20
 generated by VMD
 C         -10.482332      -37.655849       -7.788773
 N         -11.197680      -36.850163       -7.610386
 H         -12.652199      -39.662132       -8.221804
 H         -13.966644      -39.431202       -7.093975
 C         -13.668101      -39.888813       -7.985543
 C         -13.787291      -41.370682       -7.728176
 C         -14.552956      -39.345490       -9.099593
 C         -15.295018      -41.839127       -7.782450
 C         -16.040602      -39.733212       -8.771112
 C         -16.170759      -41.213665       -8.852663
 H         -13.428045      -41.531963       -6.712790
 H         -13.270757      -41.996765       -8.419744
 H         -14.517087      -38.223804       -9.099701
 H         -14.227739      -39.730343      -10.085005
 H         -15.641597      -41.574226       -6.786561
 H         -15.372190      -42.946709       -7.916502
 H         -16.659571      -39.313824       -9.539963
 H         -16.358004      -39.219845       -7.826841
 H         -17.202181      -41.532806       -8.731750
 H         -15.845376      -41.627914       -9.779311
