20
 generated by VMD
 C         -29.714916      -89.421188      -25.146370
 N         -29.132477      -89.575287      -26.105780
 H         -32.012630      -91.370056      -27.488642
 H         -30.094341      -89.362160      -24.137358
 C         -32.883492      -90.729660      -27.546608
 C         -34.266361      -91.045464      -26.989059
 C         -32.747185      -89.566185      -28.489922
 C         -35.122952      -89.819962      -26.639364
 C         -33.481709      -88.372238      -27.804623
 C         -34.931274      -88.722389      -27.597933
 H         -34.095871      -91.667053      -26.096115
 H         -34.740311      -91.593452      -27.746891
 H         -31.725031      -89.223564      -28.657209
 H         -33.274826      -89.774948      -29.436329
 H         -34.789143      -89.461960      -25.717169
 H         -36.144997      -90.119217      -26.309269
 H         -33.398605      -87.406693      -28.287539
 H         -32.954643      -88.222710      -26.899841
 H         -35.460712      -87.819786      -27.220963
 H         -35.345253      -88.951759      -28.731152
