20
 generated by VMD
 C          -1.299973      -12.035674        1.480433
 N          -0.985745      -12.505912        0.539870
 H          -3.799999      -13.155366        0.681383
 H          -5.567300      -13.170515        0.524992
 C          -4.716232      -13.684502        0.998854
 C          -4.886887      -13.834762        2.577537
 C          -4.691507      -15.000163        0.226529
 C          -5.956531      -14.902921        2.919058
 C          -5.838472      -15.856948        0.563913
 C          -5.827191      -16.172600        2.062061
 H          -5.131585      -12.880569        2.996160
 H          -3.909846      -14.265732        2.921900
 H          -4.645257      -14.741921       -0.902667
 H          -3.683377      -15.483243        0.510332
 H          -6.920802      -14.460028        2.631776
 H          -5.891452      -15.153892        3.957827
 H          -5.788145      -16.797483        0.038792
 H          -6.797034      -15.428002        0.302590
 H          -6.706355      -16.813118        2.345062
 H          -4.915307      -16.733721        2.360012
