20
 generated by VMD
 C         -48.064991     -133.804092      -47.530823
 N         -48.124622     -133.307312      -48.599056
 H         -49.260460     -134.188599      -43.997971
 H         -48.181721     -134.485275      -46.670116
 C         -49.979031     -134.964691      -43.664692
 C         -50.151917     -136.178757      -44.501652
 C         -51.041008     -134.692917      -42.602234
 C         -50.485970     -137.450836      -43.627075
 C         -51.337948     -135.938690      -41.780727
 C         -51.677189     -137.088181      -42.647327
 H         -49.311821     -136.274704      -45.089508
 H         -51.008202     -135.873169      -45.169765
 H         -50.662598     -133.828415      -42.082756
 H         -51.938049     -134.310165      -43.176193
 H         -49.616245     -137.840347      -43.063656
 H         -50.716831     -138.209122      -44.399109
 H         -52.160366     -135.959152      -41.127762
 H         -50.426678     -136.264893      -41.262466
 H         -52.058277     -138.005920      -42.115124
 H         -52.564182     -136.916687      -43.192551
