20
 generated by VMD
 C         -22.032324      -55.397419      -17.571501
 N         -21.286921      -55.822159      -18.375134
 H         -21.517263      -56.761608      -14.027940
 H         -22.345108      -55.074127      -16.607225
 C         -21.268024      -57.827343      -14.152686
 C         -21.366959      -58.795612      -13.059525
 C         -21.058105      -58.471062      -15.562420
 C         -20.866098      -60.224743      -13.289593
 C         -20.280504      -59.780651      -15.602841
 C         -19.802999      -60.309250      -14.348773
 H         -22.419521      -58.807766      -12.786823
 H         -20.918535      -58.352921      -12.210029
 H         -22.065487      -58.800331      -15.992246
 H         -20.592859      -57.725208      -16.210028
 H         -21.673691      -60.962029      -13.490406
 H         -20.405437      -60.556068      -12.341144
 H         -19.417349      -59.574749      -16.293858
 H         -20.865395      -60.545033      -16.163977
 H         -19.708021      -61.405453      -14.594127
 H         -18.795204      -59.969154      -14.095737
