20
 generated by VMD
 C         -38.653641     -111.357254      -36.427292
 N         -38.338234     -110.216217      -36.499317
 H         -40.220490     -113.881020      -35.101902
 H         -38.947231     -112.426003      -36.417828
 C         -41.160721     -113.505844      -35.392170
 C         -41.763332     -113.809975      -36.735489
 C         -41.758049     -112.517357      -34.508587
 C         -43.178421     -114.126541      -36.467495
 C         -43.183052     -112.890106      -34.312225
 C         -43.885998     -112.952126      -35.666004
 H         -41.235485     -114.665092      -37.093414
 H         -41.731266     -112.925606      -37.434490
 H         -41.338795     -112.314270      -33.496498
 H         -41.849785     -111.516624      -34.932869
 H         -43.328217     -115.102356      -35.886513
 H         -43.681721     -114.536453      -37.376984
 H         -43.692699     -112.120598      -33.712528
 H         -43.179783     -113.816078      -33.654877
 H         -44.999710     -113.181091      -35.629555
 H         -43.782520     -111.999069      -36.163754
