20
 generated by VMD
 C         -49.982723     -142.918259      -45.558525
 N         -48.875530     -143.108765      -45.244514
 H         -52.021313     -139.697647      -45.556507
 H         -51.023636     -142.564774      -45.647530
 C         -52.608810     -140.341507      -46.195591
 C         -52.192810     -140.492447      -47.741112
 C         -54.068478     -140.420120      -45.955910
 C         -52.747257     -141.904572      -48.123863
 C         -54.678673     -141.675369      -46.480854
 C         -54.241161     -142.035126      -47.886284
 H         -51.075111     -140.573654      -47.963902
 H         -52.629890     -139.734558      -48.430485
 H         -54.133625     -140.241043      -44.860828
 H         -54.603481     -139.478409      -46.330154
 H         -52.068974     -142.686386      -47.600510
 H         -52.629471     -142.087906      -49.245716
 H         -55.776958     -141.578781      -46.313000
 H         -54.400444     -142.566833      -46.000217
 H         -54.570854     -143.093536      -48.139961
 H         -54.799377     -141.260818      -48.557426
