20
 generated by VMD
 C         -62.469833     -172.330811      -54.965912
 N         -61.529556     -172.938873      -55.290390
 H         -61.610107     -170.978104      -58.349480
 H         -63.273815     -171.640411      -54.737846
 C         -62.474289     -170.309341      -58.562592
 C         -62.422253     -168.962234      -58.005157
 C         -63.789478     -170.994827      -58.255520
 C         -63.584637     -168.077576      -58.322453
 C         -64.994591     -170.154495      -58.579540
 C         -64.945633     -168.707642      -58.007191
 H         -61.395000     -168.521301      -58.272503
 H         -62.382690     -169.092896      -56.935612
 H         -63.753365     -172.042038      -58.686256
 H         -63.921864     -171.155548      -57.177311
 H         -63.623966     -167.797134      -59.405067
 H         -63.670200     -167.103882      -57.689522
 H         -65.881699     -170.698517      -58.286488
 H         -64.968361     -170.108032      -59.645950
 H         -65.773453     -168.007217      -58.374386
 H         -65.074699     -168.734329      -56.931206
