20
 generated by VMD
 C         -27.523611      -81.204651      -27.214674
 N         -28.498137      -81.728256      -27.653976
 H         -29.840076      -83.831444      -25.600838
 H         -26.631962      -80.737839      -27.080198
 C         -30.734814      -84.224121      -25.049492
 C         -30.602036      -84.154556      -23.579592
 C         -31.619816      -85.308029      -25.617558
 C         -31.818136      -84.616745      -22.796902
 C         -32.750019      -85.842674      -24.743271
 C         -32.246559      -86.039185      -23.253506
 H         -30.337416      -83.081856      -23.321054
 H         -29.689150      -84.803307      -23.355206
 H         -32.136776      -85.037674      -26.620514
 H         -30.881500      -86.032700      -26.005980
 H         -32.688442      -83.921257      -23.117308
 H         -31.745218      -84.661133      -21.715462
 H         -33.070126      -86.785362      -25.210901
 H         -33.561752      -85.109985      -24.978516
 H         -33.152153      -86.448921      -22.740065
 H         -31.512638      -86.780975      -23.163387
