20
 generated by VMD
 C         -12.843747      -27.116453       -2.384757
 N         -12.034993      -27.620703       -1.798930
 H         -10.411286      -26.380924       -4.495209
 H          -8.935898      -26.033739       -5.420823
 C          -9.331492      -26.501904       -4.499664
 C          -9.032781      -27.982334       -4.390433
 C          -8.790419      -25.717398       -3.266144
 C          -7.545822      -28.174261       -4.377662
 C          -7.289269      -25.927299       -3.150523
 C          -6.924667      -27.435680       -3.215472
 H          -9.508530      -28.356331       -5.356693
 H          -9.404665      -28.392859       -3.469270
 H          -8.953183      -24.633127       -3.366122
 H          -9.279378      -26.126074       -2.382555
 H          -7.106211      -27.740570       -5.306315
 H          -7.344974      -29.295338       -4.316949
 H          -6.815763      -25.561172       -2.246021
 H          -6.755723      -25.479940       -4.012219
 H          -5.830821      -27.597605       -3.189269
 H          -7.279184      -27.800726       -2.282281
