20
 generated by VMD
 C         -28.432381      -86.443604      -26.504301
 N         -27.686594      -87.270050      -26.758026
 H         -31.041653      -87.329033      -25.009190
 H         -29.088079      -85.583336      -26.103601
 C         -31.975546      -87.489029      -25.556780
 C         -33.004456      -88.056534      -24.679529
 C         -32.136215      -87.868591      -27.042233
 C         -34.370003      -87.572235      -25.182074
 C         -33.551495      -87.474709      -27.655722
 C         -34.660877      -88.034180      -26.569456
 H         -32.807560      -87.574699      -23.709698
 H         -33.190823      -89.164238      -24.634943
 H         -31.462164      -87.298325      -27.626307
 H         -32.000252      -88.935318      -27.311705
 H         -34.485100      -86.501251      -25.065456
 H         -35.077396      -87.926620      -24.482359
 H         -33.532852      -87.743683      -28.757341
 H         -33.602448      -86.398514      -27.699474
 H         -35.653862      -87.722549      -27.007500
 H         -34.558689      -89.225838      -26.622238
