20
 generated by VMD
 C          -5.971814      -20.951584        1.710700
 N          -5.884784      -21.927866        2.234340
 H          -4.818040      -18.644375       -1.168797
 H          -5.618917      -19.935326       -0.204184
 C          -5.715115      -19.323406       -1.171661
 C          -5.543701      -20.318068       -2.315986
 C          -7.129637      -18.772858       -1.272326
 C          -6.601601      -21.444445       -2.325783
 C          -8.207009      -19.831545       -1.309541
 C          -8.008053      -20.874971       -2.327780
 H          -4.596199      -20.763933       -2.339540
 H          -5.567788      -19.694197       -3.270427
 H          -7.279494      -18.090841       -0.378878
 H          -7.271100      -17.970840       -2.151662
 H          -6.475448      -22.095993       -1.479401
 H          -6.475354      -22.076626       -3.210506
 H          -9.178103      -19.334009       -1.471111
 H          -8.297418      -20.304569       -0.331839
 H          -8.815963      -21.637093       -2.394675
 H          -8.108128      -20.335728       -3.298768
