20
 generated by VMD
 C         -70.167992     -183.331360      -65.649307
 N         -69.399673     -182.521515      -65.956947
 H         -67.705421     -184.944168      -63.063622
 H         -70.903450     -184.103485      -65.340271
 C         -67.836739     -184.265152      -62.229797
 C         -68.145752     -184.609009      -60.770718
 C         -67.987747     -182.852753      -62.611774
 C         -67.362671     -183.619308      -59.874645
 C         -67.148445     -181.978546      -61.779236
 C         -67.409218     -182.177933      -60.312248
 H         -67.688553     -185.593887      -60.537548
 H         -69.186699     -184.831711      -60.495106
 H         -67.683418     -182.804459      -63.634171
 H         -69.074738     -182.593430      -62.447243
 H         -66.336937     -183.978256      -60.092274
 H         -67.571198     -183.750458      -58.822929
 H         -67.203735     -180.887878      -61.998440
 H         -66.062752     -182.276505      -61.893150
 H         -66.641090     -181.646713      -59.894604
 H         -68.280823     -181.601181      -59.886257
