20
 generated by VMD
 C         -79.563644     -206.845963      -73.588997
 N         -80.392105     -206.017838      -73.375641
 H         -78.010590     -205.173569      -70.924332
 H         -78.623970     -207.460907      -73.732513
 C         -77.037567     -205.336395      -70.505867
 C         -76.035484     -204.344330      -70.828827
 C         -76.759995     -206.613251      -69.827148
 C         -74.618713     -204.544891      -70.323624
 C         -75.456619     -206.650543      -69.107376
 C         -74.278519     -206.110657      -69.919266
 H         -76.394218     -203.254181      -70.678619
 H         -75.878860     -204.462372      -71.892555
 H         -77.601250     -207.012573      -69.143822
 H         -76.742378     -207.304733      -70.692810
 H         -74.501984     -203.913025      -69.450516
 H         -73.874077     -204.248260      -71.051231
 H         -75.137833     -207.665710      -68.851196
 H         -75.660980     -206.206116      -68.060600
 H         -73.371719     -206.150681      -69.254211
 H         -74.034088     -206.769409      -70.775787
