20
 generated by VMD
 C         -22.339163      -68.124863      -16.556150
 N         -21.745291      -68.219330      -15.572382
 H         -24.145844      -65.605400      -18.383947
 H         -23.133764      -67.994438      -17.427832
 C         -24.655624      -66.521935      -18.821634
 C         -23.906570      -67.027908      -20.009769
 C         -26.150812      -66.560066      -18.999985
 C         -24.470928      -68.451332      -20.360643
 C         -26.562817      -68.008438      -19.105852
 C         -26.061987      -68.586769      -20.308743
 H         -22.895733      -67.094727      -19.817848
 H         -24.077744      -66.391953      -20.913885
 H         -26.542562      -66.133911      -18.056568
 H         -26.471621      -65.957466      -19.903217
 H         -24.105448      -69.264671      -19.791174
 H         -24.170181      -68.756500      -21.357922
 H         -27.621588      -67.980179      -19.138622
 H         -26.432152      -68.499763      -18.180820
 H         -26.323637      -69.655785      -20.331961
 H         -26.490931      -68.037361      -21.196899
