20
 generated by VMD
 C         -22.659575      -52.513165      -11.985027
 N         -23.758219      -52.398918      -11.726695
 H         -19.872219      -53.863487      -14.318370
 H         -21.561630      -52.570866      -12.105191
 C         -18.870214      -53.557121      -14.041368
 C         -18.381466      -52.285637      -14.480012
 C         -18.035591      -54.607277      -13.391326
 C         -16.881725      -52.067440      -14.330256
 C         -17.257530      -53.814308      -12.433550
 C         -16.259100      -52.848320      -13.205577
 H         -18.870699      -51.429211      -13.938290
 H         -18.669630      -52.147503      -15.501455
 H         -18.689713      -55.350895      -12.949485
 H         -17.389143      -55.154861      -14.161010
 H         -16.552217      -51.002155      -14.314700
 H         -16.409025      -52.502007      -15.228518
 H         -16.689697      -54.488819      -11.818548
 H         -17.895151      -53.161423      -11.743007
 H         -15.717933      -52.242371      -12.483057
 H         -15.408142      -53.446087      -13.588494
