20
 generated by VMD
 C         -22.750032      -68.435730      -16.641743
 N         -22.903666      -69.139641      -15.699512
 H         -23.890852      -66.050827      -18.792906
 H         -22.741247      -67.821167      -17.452190
 C         -24.574007      -66.748390      -19.299732
 C         -23.951221      -67.549553      -20.341879
 C         -26.019842      -66.966919      -18.967691
 C         -24.492407      -68.920647      -20.354525
 C         -26.604956      -68.380455      -19.306919
 C         -26.053310      -68.902878      -20.568943
 H         -22.878248      -67.680168      -20.001497
 H         -23.864948      -67.048782      -21.361502
 H         -26.193577      -66.703537      -17.955778
 H         -26.633812      -66.151817      -19.341654
 H         -24.341576      -69.478050      -19.495876
 H         -24.032499      -69.438133      -21.175148
 H         -27.639059      -68.384857      -19.156551
 H         -26.311039      -69.035866      -18.486517
 H         -26.282562      -69.996155      -20.770176
 H         -26.359594      -68.219894      -21.418741
