20
 generated by VMD
 C         -62.662724     -171.992249      -55.437164
 N         -62.175438     -173.034683      -55.300804
 H         -61.592026     -171.461731      -58.203465
 H         -63.224621     -171.089111      -55.475883
 C         -62.408466     -170.715546      -58.371201
 C         -62.306206     -169.247894      -57.889851
 C         -63.787224     -171.289215      -58.783382
 C         -63.644299     -168.347321      -58.048450
 C         -64.994507     -170.398026      -58.810181
 C         -64.899864     -169.176590      -57.909496
 H         -61.471561     -168.746475      -58.543564
 H         -62.028198     -169.129089      -56.879642
 H         -63.613209     -171.734634      -59.791752
 H         -64.207581     -172.141266      -58.062771
 H         -63.486156     -167.982162      -59.069324
 H         -63.589447     -167.576599      -57.347679
 H         -65.857803     -170.974258      -58.557762
 H         -65.054993     -169.975128      -59.750240
 H         -65.741280     -168.574478      -58.250961
 H         -65.210960     -169.530273      -56.828590
