20
 generated by VMD
 C         -56.148979     -149.354431      -45.932095
 N         -56.073647     -150.361053      -45.368267
 H         -53.790634     -147.962952      -47.828930
 H         -56.401112     -148.406357      -46.390701
 C         -53.979977     -147.432693      -48.712765
 C         -53.043060     -147.524704      -49.864594
 C         -54.729366     -146.129898      -48.504982
 C         -53.663837     -147.033279      -51.188789
 C         -55.316425     -145.672897      -49.914913
 C         -54.169697     -145.562759      -51.008663
 H         -52.731487     -148.670471      -50.072899
 H         -52.101929     -147.136078      -49.566292
 H         -55.621639     -146.352692      -47.776642
 H         -54.106537     -145.292160      -48.087219
 H         -54.554546     -147.681274      -51.365879
 H         -52.913876     -147.234787      -52.036907
 H         -55.572655     -144.662079      -49.692535
 H         -56.150272     -146.288620      -50.359138
 H         -54.574509     -144.992844      -51.827568
 H         -53.347023     -144.955597      -50.586433
