20
 generated by VMD
 C         -23.727835      -68.889076      -16.534189
 N         -23.372921      -69.667343      -15.749917
 H         -23.814783      -66.253510      -19.211136
 H         -23.915119      -68.207542      -17.308519
 C         -24.454916      -67.065773      -19.550655
 C         -23.890617      -67.789268      -20.768282
 C         -25.883799      -67.159882      -19.061419
 C         -24.417305      -69.183228      -20.685516
 C         -26.531490      -68.596695      -19.162622
 C         -26.003942      -69.160515      -20.515574
 H         -22.834146      -67.757744      -20.658131
 H         -24.173260      -67.294525      -21.628693
 H         -25.896008      -66.841583      -17.962776
 H         -26.549849      -66.424774      -19.819902
 H         -24.005749      -69.704315      -19.836380
 H         -24.088167      -69.709152      -21.609558
 H         -27.643702      -68.552902      -19.223335
 H         -26.051287      -69.148811      -18.316483
 H         -26.388975      -70.204025      -20.702091
 H         -26.302212      -68.648941      -21.470463
