20
 generated by VMD
 C         -30.460873      -74.314751      -20.997322
 N         -30.516056      -75.371857      -20.480444
 H         -27.773396      -74.635757      -19.896847
 H         -30.462667      -73.252922      -21.100237
 C         -26.756731      -74.542885      -20.296787
 C         -26.217850      -75.627281      -21.083590
 C         -25.923349      -73.292427      -20.353575
 C         -26.049623      -75.321175      -22.519917
 C         -25.699514      -72.895981      -21.875751
 C         -25.088163      -74.078766      -22.613890
 H         -27.012583      -76.518257      -21.117842
 H         -25.222250      -75.964264      -20.773806
 H         -26.423941      -72.513092      -19.757402
 H         -24.894962      -73.599899      -19.778656
 H         -26.946442      -75.140083      -23.089817
 H         -25.602644      -76.203331      -22.933493
 H         -25.164907      -71.978874      -21.747965
 H         -26.586533      -72.444977      -22.357689
 H         -25.042721      -73.798714      -23.661093
 H         -24.024672      -74.259941      -22.396627
