20
 generated by VMD
 C         -23.461088      -53.074100      -12.970510
 N         -23.158272      -52.639851      -13.980452
 H         -20.443619      -54.902985      -14.638003
 H         -23.695744      -53.640770      -12.265550
 C         -19.468939      -54.680065      -14.076541
 C         -18.950653      -53.310104      -14.086421
 C         -18.525425      -55.819347      -13.899833
 C         -17.856365      -53.158623      -13.114058
 C         -17.104296      -55.542427      -13.326542
 C         -16.618425      -54.076401      -13.362831
 H         -19.838177      -52.611557      -13.945056
 H         -18.532583      -53.014923      -15.083309
 H         -19.003025      -56.516991      -13.184293
 H         -18.481403      -56.340202      -14.914562
 H         -18.280718      -53.472530      -12.145496
 H         -17.619247      -52.094231      -13.021323
 H         -16.411497      -56.233479      -13.820908
 H         -17.159973      -55.884689      -12.258413
 H         -15.995909      -53.877110      -12.541288
 H         -16.106247      -53.909161      -14.301229
