20
 generated by VMD
 C         -27.483002      -86.543671      -26.334511
 N         -28.504681      -86.415001      -26.929428
 H         -30.923304      -86.352242      -25.299677
 H         -26.646940      -86.561714      -25.682966
 C         -31.886656      -86.822968      -25.518509
 C         -32.782875      -87.386986      -24.521437
 C         -32.104820      -87.343590      -26.954678
 C         -34.243336      -87.440819      -25.050735
 C         -33.523842      -87.542351      -27.396963
 C         -34.396877      -88.208755      -26.345743
 H         -32.946697      -86.775970      -23.625946
 H         -32.362381      -88.337814      -24.162855
 H         -31.695442      -86.547981      -27.649578
 H         -31.557236      -88.265633      -27.090790
 H         -34.660465      -86.395576      -25.086443
 H         -34.831619      -87.810806      -24.202772
 H         -33.586761      -88.135384      -28.306108
 H         -34.017509      -86.575439      -27.702824
 H         -35.447807      -88.133186      -26.665501
 H         -34.064472      -89.289314      -26.141315
