20
 generated by VMD
 C         -47.520432     -124.702530      -38.041164
 N         -47.516033     -125.696747      -38.629227
 H         -44.547737     -122.360855      -37.712528
 H         -47.282879     -123.895660      -37.394741
 C         -44.740440     -122.496712      -38.730103
 C         -43.717838     -123.223724      -39.513901
 C         -45.760937     -121.658188      -39.504910
 C         -44.088543     -123.749573      -40.856209
 C         -46.113216     -122.180214      -40.911705
 C         -44.990211     -122.837173      -41.724144
 H         -43.430840     -124.123077      -38.945614
 H         -42.867920     -122.585785      -39.550220
 H         -46.650612     -121.408257      -38.983215
 H         -45.206039     -120.735931      -39.712112
 H         -44.488747     -124.792221      -40.791214
 H         -43.116158     -124.091469      -41.325535
 H         -46.846413     -121.422882      -41.311718
 H         -46.882065     -123.059540      -40.598965
 H         -45.401413     -123.281883      -42.663090
 H         -44.332092     -122.009300      -41.966503
