20
 generated by VMD
 C         -31.871885      -76.036652      -24.211658
 N         -31.250822      -76.414772      -25.098160
 H         -29.694229      -77.617348      -22.399435
 H         -32.076935      -75.594841      -23.140011
 C         -28.652899      -77.923271      -22.151741
 C         -27.648006      -78.178368      -23.229113
 C         -28.269650      -78.401756      -20.791262
 C         -26.135128      -77.937157      -22.868788
 C         -26.865129      -77.977646      -20.442654
 C         -25.827539      -78.214638      -21.456673
 H         -27.915369      -77.581390      -24.069128
 H         -27.764168      -79.241631      -23.568769
 H         -29.023647      -77.809830      -20.195000
 H         -28.396154      -79.465996      -20.714214
 H         -25.844147      -76.902695      -23.028637
 H         -25.455441      -78.423340      -23.614752
 H         -26.596104      -78.601418      -19.500692
 H         -26.694723      -76.822060      -20.165594
 H         -24.818880      -77.823486      -21.231178
 H         -25.779699      -79.304764      -21.457592
