20
 generated by VMD
 C         -79.752960     -205.410233      -71.701523
 N         -79.841927     -206.533112      -71.556564
 H         -76.104065     -204.245026      -72.081795
 H         -79.604515     -204.383957      -71.739655
 C         -76.165588     -204.034683      -71.005745
 C         -75.465271     -202.882446      -70.463577
 C         -76.404060     -205.135086      -70.021393
 C         -74.007401     -203.297714      -70.316780
 C         -75.154602     -205.303726      -69.206696
 C         -73.825569     -204.739548      -69.743088
 H         -75.941742     -202.594254      -69.526543
 H         -75.599457     -202.076324      -71.176643
 H         -77.377068     -204.711288      -69.501076
 H         -76.647041     -206.170364      -70.421486
 H         -73.628052     -202.613144      -69.505020
 H         -73.434059     -203.080170      -71.196205
 H         -75.024261     -206.370804      -68.853287
 H         -75.281052     -204.821960      -68.264297
 H         -73.081955     -204.742340      -68.952454
 H         -73.529366     -205.435562      -70.504288
