20
 generated by VMD
 C         -28.420624      -82.341286      -26.323402
 N         -27.943701      -82.498161      -27.393360
 H         -30.822998      -83.986702      -26.447695
 H         -28.834986      -82.253540      -25.330030
 C         -31.284521      -84.606094      -25.640240
 C         -30.702946      -84.383705      -24.303217
 C         -31.909761      -85.793480      -26.013628
 C         -31.718605      -84.757263      -23.230684
 C         -32.849007      -86.303223      -24.996817
 C         -32.408100      -86.214691      -23.490957
 H         -30.311554      -83.359558      -24.039331
 H         -29.811281      -85.069748      -24.325808
 H         -32.298923      -85.761833      -27.034309
 H         -31.026585      -86.537811      -26.127811
 H         -32.459042      -83.868752      -23.217932
 H         -31.117500      -84.849327      -22.356783
 H         -33.079704      -87.352585      -25.132118
 H         -33.856895      -85.697784      -25.032337
 H         -33.285877      -86.315475      -22.833353
 H         -31.685728      -87.079239      -23.309448
