20
 generated by VMD
 C         -65.495728     -177.605423      -56.626125
 N         -66.123329     -176.767532      -56.097626
 H         -64.381912     -175.246750      -58.937637
 H         -64.928780     -178.414444      -57.054604
 C         -64.395767     -174.262848      -59.259666
 C         -65.496704     -173.279160      -58.859772
 C         -63.530933     -173.872925      -60.481575
 C         -64.918724     -171.892792      -58.843647
 C         -63.170376     -172.381622      -60.521557
 C         -64.304115     -171.475952      -60.104950
 H         -65.896385     -173.520966      -57.787968
 H         -66.335594     -173.157822      -59.483700
 H         -62.688480     -174.612656      -60.592747
 H         -64.146851     -174.120651      -61.401394
 H         -64.220901     -171.917389      -58.003075
 H         -65.766838     -171.294632      -58.481743
 H         -62.803020     -172.029709      -61.446686
 H         -62.395664     -172.216446      -59.715679
 H         -63.864841     -170.520584      -60.011158
 H         -64.965805     -171.532761      -60.999458
