20
 generated by VMD
 C          -1.744667      -17.484230        2.040452
 N          -1.605232      -17.176773        3.108306
 H          -5.476662      -17.305435        1.038086
 H          -5.054081      -18.532112       -0.186780
 C          -5.840260      -17.851604        0.155620
 C          -6.135476      -16.906412       -1.032381
 C          -7.017382      -18.734484        0.617457
 C          -7.021416      -17.585415       -2.158944
 C          -7.627553      -19.432629       -0.572704
 C          -8.157476      -18.442766       -1.614118
 H          -5.228280      -16.512543       -1.427241
 H          -6.775663      -16.035765       -0.681072
 H          -6.569855      -19.451838        1.375185
 H          -7.766213      -18.029943        1.008718
 H          -6.389937      -18.210762       -2.719904
 H          -7.476279      -16.761223       -2.724688
 H          -8.523073      -19.961382       -0.212097
 H          -6.870329      -20.163473       -1.019725
 H          -8.564094      -19.045082       -2.465909
 H          -8.993657      -17.896896       -1.181880
