20
 generated by VMD
 C         -50.855793     -129.554611      -45.299343
 N         -50.940136     -129.793808      -44.143288
 H         -49.255657     -128.637222      -41.768440
 H         -50.894581     -129.106583      -46.298183
 C         -48.220158     -128.917007      -41.620586
 C         -47.912285     -130.348068      -41.115868
 C         -47.316360     -127.904610      -40.987812
 C         -46.449066     -130.716415      -41.316963
 C         -45.843906     -128.315506      -41.314350
 C         -45.425808     -129.645096      -40.824860
 H         -48.630447     -131.049347      -41.711132
 H         -48.242054     -130.369492      -40.127583
 H         -47.615417     -126.950302      -41.335056
 H         -47.370037     -127.937035      -39.820572
 H         -46.158298     -130.798340      -42.413406
 H         -46.365170     -131.646912      -40.742088
 H         -45.267574     -127.424004      -41.017025
 H         -45.853951     -128.361145      -42.374222
 H         -44.523285     -130.039917      -41.305664
 H         -45.273251     -129.737061      -39.740459
