20
 generated by VMD
 C         -40.758801     -100.874985      -32.668728
 N         -41.502216     -101.118713      -31.828220
 H         -38.316051     -102.428429      -32.482750
 H         -40.279564     -100.669266      -33.566357
 C         -37.376259     -102.713676      -32.084274
 C         -36.030415     -102.797668      -32.749832
 C         -37.305283     -102.657829      -30.533144
 C         -35.391247     -101.486351      -32.406242
 C         -36.270538     -101.547585      -30.050804
 C         -35.021553     -101.473633      -30.890835
 H         -36.269810     -102.816338      -33.827438
 H         -35.429554     -103.691002      -32.522694
 H         -38.304939     -102.621208      -29.984535
 H         -36.813564     -103.631721      -30.271700
 H         -36.136597     -100.693901      -32.657074
 H         -34.441143     -101.227730      -32.919060
 H         -36.060955     -101.842987      -29.038399
 H         -36.692780     -100.555557      -29.993612
 H         -34.459827     -100.493927      -30.819429
 H         -34.398193     -102.340927      -30.682751
