20
 generated by VMD
 C         -58.610012     -161.310471      -56.446674
 N         -58.453629     -160.221863      -56.558834
 H         -59.403847     -164.725647      -55.122181
 H         -58.826508     -162.348068      -56.300060
 C         -60.077698     -164.093445      -54.554672
 C         -59.716747     -163.501846      -53.264797
 C         -61.492424     -164.023300      -55.026508
 C         -60.312634     -162.157684      -53.069893
 C         -62.314289     -162.758057      -54.596569
 C         -61.803570     -162.207458      -53.252796
 H         -58.573868     -163.406235      -53.240070
 H         -60.274776     -164.048309      -52.393288
 H         -61.535240     -164.120178      -56.071781
 H         -62.020134     -164.923019      -54.582596
 H         -59.864838     -161.375519      -53.769951
 H         -60.029949     -161.736801      -52.161247
 H         -63.305313     -162.980637      -54.438461
 H         -62.331276     -162.100464      -55.374809
 H         -62.158424     -161.200851      -53.042973
 H         -62.252659     -162.722260      -52.410522
