20
 generated by VMD
 C         -52.514797     -146.897873      -45.342907
 N         -53.116764     -147.391510      -44.502087
 H         -54.873131     -147.042465      -47.963268
 H         -52.008213     -146.575470      -46.212830
 C         -54.681900     -146.162476      -48.620354
 C         -53.317127     -146.069870      -49.254879
 C         -55.223053     -144.911942      -48.006603
 C         -53.293545     -144.931702      -50.280651
 C         -55.239037     -143.778412      -49.025730
 C         -53.876492     -143.595993      -49.707165
 H         -52.972641     -147.047684      -49.671795
 H         -52.663071     -145.685562      -48.557549
 H         -56.295658     -145.048340      -47.786083
 H         -54.593792     -144.755936      -47.191448
 H         -54.005886     -145.213226      -50.986778
 H         -52.248108     -144.660721      -50.496391
 H         -55.752941     -142.874039      -48.519348
 H         -55.863277     -144.114655      -49.834709
 H         -54.051540     -142.953995      -50.566631
 H         -53.182655     -143.088120      -49.098495
