20
 generated by VMD
 C         -72.301552     -199.247101      -65.076630
 N         -71.148941     -199.235016      -64.916489
 H         -71.723450     -196.357590      -66.797729
 H         -73.361458     -199.527115      -65.046707
 C         -72.526199     -195.864532      -67.337784
 C         -72.852203     -194.491547      -67.005516
 C         -72.878059     -196.491196      -68.627930
 C         -73.859764     -193.898315      -68.007706
 C         -74.308609     -196.125305      -69.016342
 C         -74.958725     -194.934052      -68.337105
 H         -72.018448     -193.797348      -67.186508
 H         -73.209572     -194.470505      -65.907166
 H         -72.233498     -196.142822      -69.381844
 H         -72.643761     -197.525375      -68.561371
 H         -73.226212     -193.641220      -68.944603
 H         -74.364334     -193.017532      -67.541588
 H         -74.864189     -197.031967      -68.751221
 H         -74.353821     -196.095230      -70.124924
 H         -75.574524     -194.438736      -68.996170
 H         -75.397919     -195.409714      -67.334869
