20
 generated by VMD
 C         -39.805622     -107.495506      -37.731781
 N         -39.083084     -106.598610      -37.866863
 H         -39.356247     -108.601395      -34.991463
 H         -40.449432     -108.368439      -37.948055
 C         -39.875454     -109.234955      -34.308006
 C         -39.021069     -110.121330      -33.574814
 C         -41.286709     -109.015678      -34.166252
 C         -39.677975     -110.951714      -32.513191
 C         -41.875370     -109.697044      -32.977097
 C         -41.263165     -111.094490      -32.792725
 H         -38.259964     -109.503815      -33.083763
 H         -38.511478     -110.766823      -34.354412
 H         -41.548279     -107.914154      -34.078461
 H         -41.762730     -109.311180      -35.085636
 H         -39.416145     -110.565254      -31.518341
 H         -39.195564     -111.872711      -32.461472
 H         -42.950817     -109.870735      -33.036686
 H         -41.544655     -109.116562      -32.013931
 H         -41.820377     -111.740120      -32.081131
 H         -41.340469     -111.622818      -33.843838
