20
 generated by VMD
 C         -22.558468      -55.200447      -15.326250
 N         -23.224596      -55.211895      -16.337713
 H         -18.982557      -54.553459      -15.551656
 H         -21.956835      -54.858521      -14.576084
 C         -19.183546      -55.341499      -14.797291
 C         -19.077747      -55.206951      -13.294454
 C         -19.494524      -56.717239      -15.455317
 C         -19.650377      -56.481228      -12.586352
 C         -19.461826      -57.942070      -14.605200
 C         -19.000864      -57.761032      -13.161125
 H         -19.594311      -54.266178      -13.010733
 H         -18.068228      -55.067226      -12.946148
 H         -20.503679      -56.671139      -16.003502
 H         -18.709055      -56.837906      -16.190363
 H         -20.721085      -56.506626      -12.820811
 H         -19.460583      -56.473942      -11.504044
 H         -18.986853      -58.791771      -15.051783
 H         -20.488979      -58.374832      -14.585626
 H         -19.496813      -58.623470      -12.649888
 H         -17.899822      -57.807243      -13.075011
