20
 generated by VMD
 C         -12.992782      -31.166218       -8.218695
 N         -12.548352      -30.157467       -8.310352
 H         -11.529916      -32.959084       -7.127500
 H         -12.141448      -32.519875       -5.573438
 C         -11.572330      -33.291924       -6.098974
 C         -10.149374      -33.235733       -5.563066
 C         -12.203858      -34.672981       -5.935840
 C         -10.116211      -33.760254       -4.175395
 C         -12.212346      -35.225384       -4.465282
 C         -10.756493      -35.148529       -3.914400
 H          -9.835498      -32.168049       -5.550234
 H          -9.422873      -33.689228       -6.202204
 H         -13.232030      -34.566135       -6.322032
 H         -11.721161      -35.407784       -6.633971
 H         -10.530490      -33.079056       -3.402360
 H          -9.089221      -33.801891       -3.755230
 H         -12.550032      -36.226238       -4.401567
 H         -12.990193      -34.669765       -3.792105
 H         -10.796017      -35.365490       -2.854606
 H         -10.064743      -35.901394       -4.387416
