20
 generated by VMD
 C         -28.515299      -81.368935      -27.628962
 N         -29.565163      -80.867966      -27.448420
 H         -28.891705      -82.831490      -24.539698
 H         -27.663465      -81.784225      -28.034416
 C         -29.613256      -83.549629      -24.176210
 C         -30.064646      -83.761765      -22.675497
 C         -30.513746      -84.285362      -25.225372
 C         -31.450869      -84.172920      -22.351049
 C         -31.924385      -84.561333      -24.863651
 C         -32.048538      -85.071434      -23.456507
 H         -30.014885      -82.792740      -22.075962
 H         -29.343010      -84.416183      -22.102074
 H         -30.453520      -83.618469      -26.147993
 H         -30.003407      -85.177864      -25.630924
 H         -32.017220      -83.131310      -22.242676
 H         -31.519699      -84.674950      -21.442238
 H         -32.387329      -85.194794      -25.625971
 H         -32.479065      -83.490814      -24.922506
 H         -33.129112      -85.323959      -23.307251
 H         -31.586964      -86.035332      -23.459467
