20
 generated by VMD
 C         -47.979801     -139.851776      -46.053360
 N         -46.842834     -139.615143      -45.793880
 H         -51.034283     -138.747955      -45.147148
 H         -48.899361     -140.379227      -46.310097
 C         -51.962490     -139.147308      -45.536381
 C         -52.046055     -139.398743      -46.962700
 C         -53.194309     -139.126205      -44.517216
 C         -53.035629     -140.572968      -47.226624
 C         -54.245979     -140.048737      -44.978558
 C         -54.444611     -140.163727      -46.599388
 H         -51.011292     -139.638138      -47.382465
 H         -52.163548     -138.471222      -47.502220
 H         -52.937241     -139.296753      -43.443077
 H         -53.498730     -138.068512      -44.589893
 H         -52.654430     -141.575439      -46.888039
 H         -53.067791     -140.643753      -48.309162
 H         -55.266537     -139.951431      -44.664841
 H         -53.971367     -141.020309      -44.554138
 H         -55.118671     -140.863159      -46.919975
 H         -54.609554     -139.131180      -46.899551
