20
 generated by VMD
 C         -37.093067      -98.156387      -25.893753
 N         -36.119354      -98.441025      -26.454290
 H         -36.425968      -95.532883      -28.699400
 H         -38.114017      -97.878189      -25.516100
 C         -35.533424      -95.445854      -29.280014
 C         -35.635258      -96.300529      -30.559006
 C         -34.331543      -94.639687      -29.108383
 C         -35.249176      -95.660515      -31.839396
 C         -33.844017      -93.982712      -30.455687
 C         -33.886799      -95.074707      -31.540899
 H         -36.705929      -96.623070      -30.639416
 H         -34.990021      -97.193787      -30.373697
 H         -34.425598      -93.800140      -28.480961
 H         -33.530308      -95.163521      -28.605419
 H         -35.837872      -94.842979      -32.157623
 H         -35.146183      -96.308578      -32.717854
 H         -32.852753      -93.650635      -30.244833
 H         -34.521893      -93.075653      -30.639591
 H         -33.532146      -94.547470      -32.356792
 H         -32.950317      -95.821434      -31.359283
