20
 generated by VMD
 C          -5.310927      -21.137577        1.601977
 N          -5.484281      -20.740927        2.627825
 H          -4.933475      -18.807941       -0.573626
 H          -5.803096      -20.375055       -0.262381
 C          -5.778841      -19.430676       -0.907089
 C          -5.555255      -20.069412       -2.268622
 C          -7.151776      -18.737053       -0.759457
 C          -6.649272      -21.059019       -2.638518
 C          -8.233848      -19.787477       -1.193942
 C          -8.051751      -20.477669       -2.514523
 H          -4.609727      -20.573189       -2.241237
 H          -5.535524      -19.210573       -3.047864
 H          -7.336473      -18.522852        0.277702
 H          -7.193439      -17.967714       -1.511350
 H          -6.665424      -21.997017       -2.056086
 H          -6.460630      -21.327158       -3.722777
 H          -9.241956      -19.322567       -1.193556
 H          -8.235328      -20.567249       -0.410221
 H          -8.819534      -21.253609       -2.736004
 H          -8.118670      -19.635996       -3.238375
