20
 generated by VMD
 C         -56.300827     -149.617401      -46.232811
 N         -56.515079     -150.568176      -45.565697
 H         -53.664822     -148.136810      -47.842239
 H         -56.241848     -148.689865      -46.737381
 C         -53.897991     -147.440857      -48.668606
 C         -53.011868     -147.588120      -49.867455
 C         -54.623497     -146.156403      -48.558418
 C         -53.710838     -147.357269      -51.180000
 C         -55.304916     -145.876068      -49.849232
 C         -54.313766     -145.908524      -51.104298
 H         -52.801678     -148.700287      -49.798107
 H         -52.019115     -147.190353      -49.772430
 H         -55.210354     -146.109528      -47.595661
 H         -53.898533     -145.361526      -48.409901
 H         -54.611729     -147.924469      -51.330925
 H         -53.177055     -147.399963      -52.170685
 H         -55.897816     -144.883621      -49.749134
 H         -55.976749     -146.713791      -49.899460
 H         -54.870640     -145.768890      -52.021053
 H         -53.555138     -145.100159      -51.066154
