20
 generated by VMD
 C         -47.197186     -124.748596      -38.020519
 N         -47.782219     -125.644798      -38.464031
 H         -44.675026     -122.275230      -37.636154
 H         -46.516865     -124.022034      -37.556835
 C         -44.770164     -122.449791      -38.762199
 C         -43.594601     -122.973625      -39.541088
 C         -45.691204     -121.554604      -39.510468
 C         -44.051929     -123.666374      -40.850399
 C         -46.235802     -122.170456      -40.814884
 C         -44.944473     -122.743050      -41.676739
 H         -43.088768     -123.739449      -38.905296
 H         -42.789268     -122.203735      -39.854568
 H         -46.431892     -121.071716      -38.801231
 H         -45.027287     -120.725746      -39.834450
 H         -44.558319     -124.631119      -40.568138
 H         -43.154144     -123.862747      -41.526180
 H         -46.826206     -121.544022      -41.459763
 H         -46.708008     -123.004745      -40.504543
 H         -45.228897     -123.181313      -42.631496
 H         -44.319176     -121.824959      -41.888939
