20
 generated by VMD
 C         -46.767193     -125.144958      -38.310314
 N         -47.653339     -124.867203      -37.585484
 H         -44.664310     -122.201920      -37.648495
 H         -45.866207     -125.176117      -38.938660
 C         -44.796486     -122.284416      -38.760006
 C         -43.498409     -122.628105      -39.548931
 C         -45.729885     -121.406349      -39.440838
 C         -43.848682     -123.171143      -40.853310
 C         -46.221172     -122.051559      -40.747829
 C         -44.933296     -122.420273      -41.620117
 H         -42.862953     -123.280708      -39.089630
 H         -43.026062     -121.641525      -39.667213
 H         -46.571304     -121.142059      -38.737869
 H         -45.255352     -120.493172      -39.637856
 H         -44.347107     -124.107430      -40.753933
 H         -42.967777     -123.533623      -41.375923
 H         -46.946407     -121.308136      -41.184391
 H         -46.913383     -122.972305      -40.441338
 H         -45.207302     -122.807693      -42.584591
 H         -44.467419     -121.424438      -41.829365
