20
 generated by VMD
 C         -28.402908      -74.004837      -18.348457
 N         -29.169538      -73.362564      -17.823259
 H         -25.044542      -71.958900      -18.698454
 H         -27.835535      -74.561867      -19.209036
 C         -25.354177      -71.934578      -19.780455
 C         -24.713661      -73.126945      -20.660498
 C         -25.723360      -70.623932      -20.573662
 C         -25.261450      -73.249870      -22.085766
 C         -26.408796      -70.985779      -21.888510
 C         -25.439302      -71.798241      -22.725632
 H         -24.830368      -73.993568      -20.015036
 H         -23.717028      -72.950623      -20.715078
 H         -26.360359      -70.020432      -19.976704
 H         -24.743086      -70.094543      -20.793417
 H         -26.249805      -73.590630      -22.047089
 H         -24.729124      -73.861664      -22.778355
 H         -26.595110      -70.012466      -22.320190
 H         -27.253801      -71.609924      -21.736910
 H         -25.788649      -71.884804      -23.831884
 H         -24.527573      -71.167198      -22.822618
