20
 generated by VMD
 C         -58.826809     -158.931961      -58.027508
 N         -58.577969     -159.909058      -57.558754
 H         -58.803467     -160.991562      -54.648109
 H         -59.032391     -158.001617      -58.488846
 C         -59.437874     -161.502396      -53.945663
 C         -58.815189     -161.874481      -52.599174
 C         -60.789356     -161.973633      -54.380234
 C         -59.819458     -161.574570      -51.517124
 C         -61.652061     -161.936691      -53.152870
 C         -61.070271     -162.308746      -51.789188
 H         -57.962555     -161.230698      -52.459915
 H         -58.436813     -162.863464      -52.485645
 H         -61.135208     -161.272980      -55.230961
 H         -60.722191     -162.959824      -54.831165
 H         -59.951332     -160.365036      -51.377228
 H         -59.297050     -162.063370      -50.707134
 H         -62.543293     -162.471375      -53.290745
 H         -62.025818     -160.965271      -52.924671
 H         -61.822441     -162.087357      -51.003139
 H         -60.864559     -163.336563      -51.892391
