20
 generated by VMD
 C         -68.688568     -185.811646      -66.120728
 N         -68.766823     -186.112473      -67.254372
 H         -69.608635     -182.938568      -63.540581
 H         -68.700233     -185.475449      -65.089737
 C         -69.330246     -183.753342      -62.830807
 C         -70.330582     -184.834259      -62.648602
 C         -67.950737     -183.799805      -62.106136
 C         -70.047142     -185.768448      -61.499905
 C         -67.681900     -185.047958      -61.210796
 C         -68.621613     -186.204514      -61.578884
 H         -70.501686     -185.471222      -63.552361
 H         -71.247009     -184.328262      -62.343159
 H         -67.124054     -183.798233      -62.876682
 H         -67.998848     -182.928207      -61.422234
 H         -70.858696     -186.468979      -61.574997
 H         -70.175194     -185.429443      -60.480225
 H         -67.872841     -184.858765      -60.207523
 H         -66.606781     -185.167587      -61.283382
 H         -68.225014     -186.561157      -62.654644
 H         -68.462875     -187.131897      -60.961269
