20
 generated by VMD
 C         -60.262810     -156.101669      -56.161724
 N         -60.674717     -155.115875      -55.641998
 H         -59.878380     -157.912003      -52.735233
 H         -59.857170     -157.091782      -56.488701
 C         -59.013405     -157.838669      -52.100742
 C         -58.262459     -156.428940      -52.311729
 C         -58.109608     -158.972397      -51.565025
 C         -57.234554     -156.187180      -51.077023
 C         -56.991657     -158.706131      -50.588718
 C         -56.246460     -157.450256      -50.907413
 H         -59.006062     -155.615463      -52.172417
 H         -57.815407     -156.539429      -53.254745
 H         -58.740334     -159.901367      -51.267319
 H         -57.615700     -159.206528      -52.509426
 H         -57.664948     -156.073364      -50.152172
 H         -56.740005     -155.273743      -51.416504
 H         -56.454903     -159.667465      -50.627579
 H         -57.341755     -158.616791      -49.612217
 H         -55.532860     -157.269821      -50.135902
 H         -55.807083     -157.562164      -51.964779
