20
 generated by VMD
 C         -50.148315     -144.966080      -44.539669
 N         -49.408684     -144.074356      -44.595516
 H         -52.607231     -142.421646      -45.751991
 H         -50.733295     -145.860168      -44.681400
 C         -53.130962     -142.443497      -46.694527
 C         -52.404423     -142.449768      -47.953259
 C         -54.510418     -141.742523      -46.627682
 C         -53.315815     -142.685989      -49.185154
 C         -55.470474     -142.080917      -47.883034
 C         -54.621601     -141.909500      -49.186970
 H         -51.506523     -143.009033      -47.902500
 H         -51.980450     -141.510834      -48.174049
 H         -54.964867     -142.113037      -45.699432
 H         -54.361431     -140.717499      -46.475727
 H         -53.705990     -143.738251      -49.198605
 H         -52.632698     -142.587234      -50.059525
 H         -56.279160     -141.355438      -47.949207
 H         -55.750015     -143.101379      -47.756294
 H         -55.228428     -142.106049      -50.049164
 H         -54.390057     -140.857101      -49.274059
