20
 generated by VMD
 C         -23.175117      -53.789043      -14.787930
 N         -24.240328      -53.362759      -15.073462
 H         -20.564718      -55.257736      -15.300259
 H         -22.189430      -54.353905      -14.178130
 C         -19.659340      -55.311749      -14.562986
 C         -19.092138      -54.330952      -13.655741
 C         -18.828487      -56.504242      -14.913740
 C         -18.318998      -54.934078      -12.433666
 C         -17.976084      -56.973003      -13.785448
 C         -17.217196      -55.826920      -13.006920
 H         -19.823481      -53.566216      -13.285568
 H         -18.402620      -53.677059      -14.203726
 H         -19.416199      -57.336422      -15.358348
 H         -18.200333      -56.106544      -15.647163
 H         -19.051672      -55.403492      -11.721102
 H         -17.859552      -54.160484      -11.817222
 H         -17.252281      -57.719154      -14.157736
 H         -18.605391      -57.490055      -13.035432
 H         -16.573997      -56.244331      -12.240300
 H         -16.588013      -55.245102      -13.613031
