20
 generated by VMD
 C         -38.172512     -107.986160      -36.892517
 N         -38.405590     -108.414505      -37.944221
 H         -41.009121     -108.850067      -35.319962
 H         -38.091656     -107.488609      -35.911350
 C         -41.240704     -109.656914      -34.739685
 C         -40.307823     -110.754601      -35.092453
 C         -42.482990     -109.753372      -34.020561
 C         -40.124172     -111.620071      -33.846649
 C         -42.194645     -110.640984      -32.803921
 C         -41.426193     -111.967674      -33.085888
 H         -39.329952     -110.491234      -35.569859
 H         -40.671085     -111.498123      -35.786369
 H         -42.700203     -108.785110      -33.642902
 H         -43.284245     -110.206940      -34.628300
 H         -39.397926     -111.031380      -33.142380
 H         -39.488064     -112.439499      -34.176895
 H         -43.131859     -110.852844      -32.296257
 H         -41.611126     -110.051483      -32.159683
 H         -41.120293     -112.392113      -32.168655
 H         -42.154003     -112.725044      -33.657452
