20
 generated by VMD
 C         -68.906471     -180.511948      -62.540630
 N         -69.973595     -180.510010      -62.120644
 H         -66.771332     -180.870407      -59.422623
 H         -67.864426     -180.595871      -62.873482
 C         -66.375816     -179.953400      -59.870415
 C         -65.217537     -180.186508      -60.729404
 C         -66.750259     -178.762421      -59.203598
 C         -65.097382     -178.999329      -61.720585
 C         -66.363777     -177.555817      -60.068623
 C         -65.050003     -177.694870      -60.921810
 H         -65.270142     -181.234924      -61.233273
 H         -64.260818     -180.349213      -60.047592
 H         -67.866867     -178.689301      -58.988785
 H         -66.246994     -178.776306      -58.259682
 H         -66.051949     -178.958588      -62.372753
 H         -64.141823     -178.924210      -62.279297
 H         -66.397453     -176.626114      -59.542202
 H         -67.203384     -177.373459      -60.781223
 H         -64.934608     -176.753784      -61.421478
 H         -64.227036     -177.754211      -60.061859
