20
 generated by VMD
 C          -6.780119      -23.309465        3.343676
 N          -6.668779      -22.715193        2.398953
 H          -7.625854      -22.472536       -0.431668
 H          -8.783839      -22.159899       -1.769224
 C          -7.781973      -22.033825       -1.508228
 C          -6.957060      -22.745941       -2.521938
 C          -7.546946      -20.523176       -1.515996
 C          -7.034981      -22.206627       -3.904283
 C          -7.608923      -19.962523       -2.923984
 C          -6.761383      -20.734953       -3.896403
 H          -7.257401      -23.778610       -2.524864
 H          -5.877663      -22.538013       -2.158693
 H          -8.269781      -20.043844       -0.764455
 H          -6.580314      -20.335224       -1.002297
 H          -7.982368      -22.413948       -4.374389
 H          -6.349603      -22.744057       -4.557952
 H          -7.348051      -18.888247       -3.009877
 H          -8.673552      -19.898985       -3.178532
 H          -6.850573      -20.407404       -4.900496
 H          -5.742353      -20.573378       -3.607501
