20
 generated by VMD
 C         -48.056149     -125.075989      -38.787167
 N         -47.171970     -125.846199      -38.671043
 H         -45.176918     -122.727005      -37.742619
 H         -48.723984     -124.273392      -38.634869
 C         -45.098454     -122.897545      -38.786144
 C         -44.189240     -123.925049      -39.398907
 C         -45.661758     -121.817787      -39.648590
 C         -44.443729     -124.356888      -40.879738
 C         -45.995842     -122.336227      -41.121563
 C         -44.858379     -123.063957      -41.659927
 H         -44.185131     -124.782074      -38.806904
 H         -43.192795     -123.437927      -39.210430
 H         -46.601940     -121.290802      -39.212292
 H         -44.849895     -121.102203      -39.588223
 H         -45.287968     -125.061638      -40.886784
 H         -43.427284     -124.617508      -41.207233
 H         -46.169025     -121.361107      -41.637222
 H         -46.785767     -123.096367      -41.135571
 H         -45.071747     -123.363853      -42.677967
 H         -44.023811     -122.354050      -41.717117
