20
 generated by VMD
 C         -50.221455     -131.975098      -46.779739
 N         -49.949760     -132.495132      -47.858017
 H         -47.951820     -132.126205      -43.791149
 H         -50.338566     -131.356430      -45.910004
 C         -48.676521     -132.639404      -43.249229
 C         -49.512360     -133.684113      -43.767162
 C         -48.788628     -132.320541      -41.745621
 C         -49.333019     -134.987244      -42.905979
 C         -48.602745     -133.572922      -40.895756
 C         -49.541180     -134.727264      -41.419186
 H         -49.172081     -134.038544      -44.741470
 H         -50.610497     -133.595703      -43.802917
 H         -48.120438     -131.475464      -41.547569
 H         -49.690639     -131.905197      -41.462757
 H         -48.367912     -135.457230      -43.001263
 H         -50.147121     -135.644333      -43.167919
 H         -48.738255     -133.457596      -39.786495
 H         -47.482735     -133.814636      -41.158142
 H         -49.190559     -135.601593      -40.716175
 H         -50.525803     -134.631622      -40.995235
