20
 generated by VMD
 C         -58.927422     -168.458099      -55.028454
 N         -57.815388     -168.769257      -54.915020
 H         -62.058155     -168.868332      -55.683235
 H         -59.937820     -168.072861      -55.065712
 C         -62.422768     -167.974625      -56.259178
 C         -62.640144     -168.065948      -57.812874
 C         -62.827831     -166.635635      -55.648632
 C         -64.182281     -167.574387      -58.167439
 C         -64.272751     -166.175995      -55.991646
 C         -64.492912     -166.239380      -57.537018
 H         -62.514034     -169.108032      -58.076725
 H         -61.849606     -167.460663      -58.237686
 H         -62.607418     -166.615311      -54.492653
 H         -62.133331     -165.836670      -55.925007
 H         -64.879379     -168.358734      -57.827881
 H         -64.156586     -167.451859      -59.274403
 H         -64.328796     -165.124725      -55.699158
 H         -65.119614     -166.800858      -55.700218
 H         -65.580803     -165.955399      -57.688663
 H         -63.837391     -165.394440      -57.984623
