20
 generated by VMD
 C         -38.281139     -109.690041      -36.476231
 N         -37.575996     -109.014709      -35.880238
 H         -40.815552     -111.416893      -37.013073
 H         -39.040634     -110.305336      -36.960106
 C         -41.278061     -111.922821      -36.153912
 C         -42.090981     -113.132629      -36.377811
 C         -41.947098     -110.909996      -35.216408
 C         -42.513535     -113.820259      -35.067413
 C         -42.129662     -111.545128      -33.817970
 C         -42.965080     -112.935593      -33.881199
 H         -41.530449     -113.819023      -37.067028
 H         -42.998817     -112.942070      -37.019482
 H         -41.244553     -110.074471      -35.322014
 H         -42.831173     -110.678963      -35.797588
 H         -41.593349     -114.443810      -34.665550
 H         -43.252514     -114.544937      -35.264359
 H         -42.653316     -110.912010      -33.035835
 H         -41.082436     -111.860909      -33.377087
 H         -42.873386     -113.474297      -32.870792
 H         -43.918854     -112.584152      -34.081238
