20
 generated by VMD
 C         -79.353546     -205.865921      -73.341454
 N         -79.264114     -206.816513      -74.053398
 H         -78.146324     -205.414612      -69.673317
 H         -79.464600     -205.057526      -72.528625
 C         -77.544357     -206.006042      -70.311508
 C         -76.623466     -205.307983      -71.321701
 C         -77.073685     -207.311325      -69.757462
 C         -75.272614     -205.188675      -70.678253
 C         -75.699905     -207.224686      -69.259239
 C         -74.673813     -206.532654      -70.216621
 H         -76.980865     -204.351471      -71.677910
 H         -76.733513     -206.089157      -72.060425
 H         -77.812744     -207.796570      -69.113022
 H         -77.078003     -207.938400      -70.696068
 H         -75.345612     -204.507996      -69.858459
 H         -74.636673     -204.656143      -71.376953
 H         -75.347382     -208.292648      -69.100967
 H         -75.655449     -206.722672      -68.331322
 H         -73.758972     -206.247086      -69.724709
 H         -74.307587     -207.234894      -71.017036
