20
 generated by VMD
 C         -23.358372      -53.229355      -13.163890
 N         -23.272814      -52.657917      -14.149744
 H         -20.418446      -54.857605      -14.277917
 H         -23.542685      -53.925018      -12.406056
 C         -19.472187      -54.769714      -14.029253
 C         -18.940861      -53.356777      -14.058573
 C         -18.596161      -56.033962      -13.999216
 C         -17.828175      -53.211624      -12.965439
 C         -17.261204      -55.671013      -13.461509
 C         -16.766516      -54.225876      -13.336673
 H         -19.760283      -52.776627      -13.697811
 H         -18.519098      -53.118782      -15.045529
 H         -19.089386      -56.793842      -13.416192
 H         -18.546474      -56.389462      -15.006693
 H         -18.165558      -53.379612      -11.926286
 H         -17.452833      -52.181908      -13.025944
 H         -16.490282      -56.283974      -13.932583
 H         -17.225008      -56.073719      -12.420616
 H         -15.932854      -54.166786      -12.551705
 H         -16.388084      -53.946686      -14.330708
