20
 generated by VMD
 C         -58.729309     -161.305450      -56.532692
 N         -58.484882     -160.147125      -56.755169
 H         -59.221977     -164.701721      -55.020462
 H         -59.009220     -162.356293      -56.304405
 C         -59.965878     -164.041077      -54.566803
 C         -59.630772     -163.309250      -53.263935
 C         -61.417183     -163.887283      -54.960510
 C         -60.354710     -162.124863      -52.775616
 C         -62.066525     -162.500748      -54.634388
 C         -61.877781     -162.285538      -53.062901
 H         -58.579350     -163.122040      -53.124073
 H         -59.863880     -164.111557      -52.618668
 H         -61.561588     -164.163406      -56.086796
 H         -62.038364     -164.647751      -54.520512
 H         -60.104992     -161.189316      -53.264473
 H         -60.288223     -161.945663      -51.638165
 H         -63.193218     -162.717575      -54.806919
 H         -61.505241     -161.577988      -55.130978
 H         -62.471516     -161.382385      -52.782013
 H         -62.359993     -163.092667      -52.487602
