20
 generated by VMD
 C         -78.621452     -209.717697      -76.785034
 N         -77.718872     -210.078842      -77.355247
 H         -79.398689     -211.552765      -74.237259
 H         -79.573242     -209.463577      -76.215149
 C         -79.531303     -212.091965      -73.253777
 C         -78.171783     -212.330215      -72.663879
 C         -80.560730     -213.202469      -73.051567
 C         -78.238312     -212.744675      -71.248344
 C         -80.762093     -213.338303      -71.590836
 C         -79.466026     -213.779572      -70.915947
 H         -77.571609     -211.467468      -72.888397
 H         -77.725433     -213.170868      -73.241592
 H         -81.487511     -212.796967      -73.460289
 H         -80.308777     -214.112564      -73.517517
 H         -78.481255     -211.887466      -70.616562
 H         -77.293236     -213.201950      -70.928139
 H         -81.324440     -214.316223      -71.361923
 H         -81.118889     -212.471649      -71.107597
 H         -79.583855     -213.745117      -69.795456
 H         -79.166550     -214.739731      -71.448776
