20
 generated by VMD
 C         -47.521183     -137.991928      -46.092190
 N         -47.281414     -137.381317      -47.010471
 H         -50.284138     -137.455627      -44.509426
 H         -47.639690     -138.342346      -45.115967
 C         -51.330334     -137.580017      -44.779152
 C         -51.308014     -138.394104      -46.026169
 C         -52.597858     -137.454620      -43.995235
 C         -52.277546     -139.575348      -46.051128
 C         -53.439548     -138.677200      -43.981548
 C         -53.653809     -139.228302      -45.490856
 H         -50.232796     -138.671494      -46.208637
 H         -51.595875     -137.697037      -46.747372
 H         -52.295490     -137.101898      -42.962383
 H         -53.165127     -136.614990      -44.497566
 H         -51.894573     -140.272400      -45.320560
 H         -52.445164     -139.917175      -47.061218
 H         -54.481434     -138.408630      -43.557564
 H         -52.838024     -139.522263      -43.469166
 H         -54.289993     -140.193314      -45.442299
 H         -54.100800     -138.439331      -46.062798
