20
 generated by VMD
 C         -10.543585      -37.561295       -8.016540
 N         -10.888372      -36.721130       -7.410074
 H         -12.665431      -39.377754       -8.165376
 H         -13.977754      -39.259480       -6.888166
 C         -13.705212      -39.740643       -7.906874
 C         -13.792423      -41.264778       -7.787972
 C         -14.633589      -39.210716       -9.025634
 C         -15.241714      -41.863178       -7.658799
 C         -16.117041      -39.755745       -8.834969
 C         -16.123997      -41.286678       -8.796926
 H         -13.036858      -41.614941       -7.037719
 H         -13.381269      -41.807404       -8.678526
 H         -14.584674      -38.112103       -9.130258
 H         -14.231865      -39.494453       -9.981112
 H         -15.659194      -41.604317       -6.649846
 H         -15.291619      -42.940639       -7.628846
 H         -16.719164      -39.388321       -9.749412
 H         -16.521612      -39.293530       -7.978518
 H         -17.180340      -41.608891       -8.647323
 H         -15.766410      -41.775940       -9.722664
