20
 generated by VMD
 C         -53.760143     -147.832520      -45.454342
 N         -54.547146     -147.937561      -44.611298
 H         -54.985264     -147.872025      -49.077522
 H         -52.969059     -147.819366      -46.231789
 C         -54.530430     -146.927856      -49.000118
 C         -53.198631     -146.683289      -49.811222
 C         -54.958096     -145.743042      -48.235275
 C         -53.388084     -145.408936      -50.640778
 C         -55.119488     -144.461487      -49.119385
 C         -53.896519     -144.154251      -49.892185
 H         -52.974121     -147.619797      -50.369709
 H         -52.340759     -146.489243      -49.088467
 H         -55.905449     -145.900238      -47.784412
 H         -54.236492     -145.528397      -47.455338
 H         -53.738472     -145.446503      -51.669682
 H         -52.417027     -145.047348      -50.781151
 H         -55.398552     -143.530396      -48.415405
 H         -55.986073     -144.630966      -49.693516
 H         -53.924473     -143.371201      -50.662941
 H         -53.163746     -143.837158      -49.104713
