20
 generated by VMD
 C         -50.201824     -145.112366      -44.672848
 N         -49.478474     -144.174988      -44.431057
 H         -52.838036     -143.175140      -45.879723
 H         -50.690868     -145.992203      -45.035007
 C         -53.296658     -142.648300      -46.705414
 C         -52.450684     -142.438339      -48.025780
 C         -54.522217     -141.835419      -46.684673
 C         -53.325539     -142.848602      -49.193840
 C         -55.379520     -142.068329      -47.924210
 C         -54.607372     -141.946457      -49.288788
 H         -51.505196     -142.947021      -47.990417
 H         -52.165043     -141.387268      -47.885918
 H         -55.176506     -142.047775      -45.788254
 H         -54.442421     -140.692596      -46.665779
 H         -53.492493     -144.009888      -49.073555
 H         -52.843815     -142.694397      -50.223728
 H         -56.188995     -141.327484      -47.903656
 H         -55.741348     -143.115143      -47.852867
 H         -55.357044     -142.325974      -50.025028
 H         -54.328384     -140.844818      -49.628815
