20
 generated by VMD
 C         -62.525433     -174.255264      -54.938011
 N         -63.610348     -174.118637      -55.425823
 H         -62.365894     -172.474915      -58.335896
 H         -61.495186     -174.461441      -54.621540
 C         -63.070236     -171.671082      -58.465343
 C         -63.467079     -170.615250      -57.574959
 C         -64.210556     -171.969666      -59.374405
 C         -63.708263     -169.370819      -58.301552
 C         -64.566574     -170.765137      -60.230766
 C         -64.886200     -169.502930      -59.263145
 H         -62.678379     -170.563934      -56.887371
 H         -64.341354     -171.033813      -56.986416
 H         -63.904400     -172.800110      -60.011513
 H         -64.997009     -172.505310      -58.790524
 H         -62.841766     -169.058594      -58.934067
 H         -63.780834     -168.517868      -57.487030
 H         -65.393661     -171.060883      -60.880527
 H         -63.715950     -170.509171      -60.807510
 H         -65.027130     -168.621765      -59.856392
 H         -65.795090     -169.672913      -58.675549
