20
 generated by VMD
 C         -12.529310      -27.391199       -4.708269
 N         -13.357937      -28.126324       -4.735512
 H         -10.820897      -30.137470       -2.752067
 H         -10.743389      -28.588329       -3.629198
 C         -10.130145      -29.458817       -3.240134
 C          -9.465712      -30.162384       -4.415164
 C          -9.043096      -28.776869       -2.349545
 C          -8.621442      -29.238132       -5.259004
 C          -8.017150      -27.937998       -3.150734
 C          -7.541830      -28.587011       -4.512005
 H         -10.225076      -30.663826       -5.008879
 H          -8.806167      -31.042496       -4.124835
 H          -9.559525      -28.152115       -1.609491
 H          -8.509504      -29.555584       -1.888034
 H          -9.338120      -28.514538       -5.738591
 H          -8.230061      -29.783695       -6.175548
 H          -7.185811      -27.667015       -2.519519
 H          -8.472957      -26.950447       -3.449205
 H          -6.953033      -27.852676       -5.095989
 H          -6.844237      -29.302952       -4.209197
