20
 generated by VMD
 C         -15.699310      -47.651585       -6.482420
 N         -15.750395      -46.578625       -6.157670
 H         -16.593035      -47.661743      -10.068539
 H         -15.276221      -47.286495      -11.213019
 C         -16.316422      -47.081871      -10.941431
 C         -16.419744      -45.547115      -10.685299
 C         -17.235798      -47.468853      -12.097828
 C         -16.138754      -44.707043      -11.977776
 C         -16.912752      -46.687794      -13.373589
 C         -16.991535      -45.193451      -13.137300
 H         -15.595642      -45.366020       -9.970005
 H         -17.359156      -45.218998      -10.261736
 H         -17.156832      -48.521729      -12.283679
 H         -18.255163      -47.285912      -11.790842
 H         -15.096267      -44.785652      -12.277567
 H         -16.315853      -43.659328      -11.793342
 H         -17.513590      -46.920116      -14.279700
 H         -15.844360      -46.979576      -13.726398
 H         -16.765337      -44.714863      -14.157908
 H         -18.055262      -44.854874      -13.061017
