20
 generated by VMD
 C         -29.554041      -88.536140      -25.973330
 N         -29.368792      -88.980278      -24.943531
 H         -31.426603      -90.216690      -27.595953
 H         -29.844942      -88.026604      -26.829521
 C         -32.386642      -89.856667      -27.446501
 C         -32.986145      -89.996994      -26.141167
 C         -33.272202      -89.401924      -28.586657
 C         -33.867104      -88.634842      -25.836714
 C         -33.968399      -88.078415      -28.285095
 C         -34.847893      -88.366447      -27.061316
 H         -32.110241      -90.123268      -25.436510
 H         -33.491081      -90.939072      -25.883930
 H         -32.619747      -89.174858      -29.465282
 H         -33.953480      -90.299210      -28.823076
 H         -33.203911      -87.839867      -25.754805
 H         -34.376919      -88.916954      -24.929543
 H         -34.642220      -87.938255      -29.176170
 H         -33.380089      -87.178207      -28.036055
 H         -35.535927      -87.549736      -26.737658
 H         -35.552265      -89.265053      -27.148117
