20
 generated by VMD
 C         -40.833866     -103.839790      -37.220375
 N         -40.591011     -104.722435      -36.502491
 H         -39.633709     -106.467850      -34.510471
 H         -40.912567     -103.211105      -38.126251
 C         -39.402336     -106.695107      -33.486759
 C         -38.082111     -106.320900      -32.913879
 C         -39.846458     -108.153702      -33.269638
 C         -37.936275     -106.856453      -31.413183
 C         -39.547127     -108.759239      -31.891478
 C         -38.150551     -108.446762      -31.446371
 H         -38.081089     -105.222610      -32.871269
 H         -37.257469     -106.582199      -33.642662
 H         -40.945602     -108.245178      -33.549656
 H         -39.380260     -108.606049      -34.111660
 H         -38.748402     -106.405128      -30.786671
 H         -36.933601     -106.501816      -31.049847
 H         -39.630146     -109.878250      -32.029442
 H         -40.303032     -108.582390      -31.187780
 H         -37.870895     -108.878792      -30.566847
 H         -37.437645     -108.861572      -32.254932
