20
 generated by VMD
 C         -60.513500     -156.285233      -54.618130
 N         -60.201538     -155.398453      -55.370125
 H         -59.792091     -157.104507      -51.666775
 H         -60.686714     -156.978195      -53.794479
 C         -58.820042     -157.098434      -52.056393
 C         -58.037971     -155.783859      -52.106480
 C         -57.940475     -158.275055      -52.037056
 C         -57.043606     -155.693817      -50.997974
 C         -56.888020     -158.155457      -51.014095
 C         -56.123585     -156.926865      -51.023598
 H         -58.779102     -155.080933      -52.116043
 H         -57.581570     -155.688492      -53.078201
 H         -58.561279     -159.137711      -51.851974
 H         -57.439716     -158.403320      -53.096016
 H         -57.694607     -155.545364      -50.078812
 H         -56.488747     -154.752945      -50.834023
 H         -56.093204     -158.834198      -51.164932
 H         -57.258629     -158.498154      -50.008190
 H         -55.464508     -156.916931      -50.091331
 H         -55.441158     -156.912994      -51.850559
