20
 generated by VMD
 C         -47.825085     -124.795021      -38.317547
 N         -47.142258     -125.607460      -38.733295
 H         -45.162071     -122.960861      -37.721409
 H         -48.276176     -123.994301      -37.782383
 C         -45.060974     -122.862778      -38.787811
 C         -43.921692     -123.528534      -39.422005
 C         -45.683895     -121.793678      -39.487938
 C         -44.269463     -124.041321      -40.863735
 C         -46.092396     -122.231834      -41.038097
 C         -44.914131     -122.968590      -41.723171
 H         -43.603535     -124.344688      -38.768257
 H         -42.983364     -122.800278      -39.552685
 H         -46.700813     -121.607887      -38.998840
 H         -45.160496     -120.850075      -39.459969
 H         -44.932503     -124.951073      -40.739067
 H         -43.203564     -124.198273      -41.307701
 H         -46.211422     -121.308144      -41.598843
 H         -46.950294     -122.938248      -41.008549
 H         -45.397640     -123.559547      -42.566589
 H         -44.185047     -122.272865      -42.213360
