20
 generated by VMD
 C         -22.489046      -55.009567      -15.571826
 N         -23.344223      -55.292225      -16.232534
 H         -19.352287      -54.509415      -15.347752
 H         -21.560341      -55.036797      -14.858959
 C         -19.284576      -55.429279      -14.759395
 C         -19.171888      -55.390076      -13.333048
 C         -19.251873      -56.767693      -15.538902
 C         -19.736189      -56.582645      -12.574838
 C         -19.557692      -57.974293      -14.558717
 C         -19.005932      -57.767662      -13.148125
 H         -19.707743      -54.488247      -12.965686
 H         -18.140594      -55.199757      -13.072933
 H         -20.116364      -56.595612      -16.251507
 H         -18.329557      -57.012852      -16.011124
 H         -20.819019      -56.699459      -12.736507
 H         -19.472679      -56.425945      -11.522049
 H         -19.089489      -58.871605      -14.938272
 H         -20.605017      -58.326817      -14.590923
 H         -19.113663      -58.718597      -12.595466
 H         -17.950480      -57.586094      -13.332840
