20
 generated by VMD
 C          -9.297013      -24.490637        1.216830
 N          -9.713172      -25.332157        1.805925
 H          -6.987002      -23.221825       -0.660590
 H          -8.428171      -22.584003       -1.510543
 C          -7.426829      -22.972956       -1.662514
 C          -7.484156      -24.308558       -2.509691
 C          -6.620699      -21.928349       -2.363513
 C          -7.941773      -24.054001       -4.004122
 C          -7.074885      -21.753792       -3.799742
 C          -7.029060      -23.024427       -4.596462
 H          -8.103576      -25.092943       -1.898463
 H          -6.513981      -24.827261       -2.578902
 H          -6.692834      -20.921898       -1.914461
 H          -5.584062      -22.244741       -2.382441
 H          -8.967080      -23.666462       -4.036906
 H          -8.024515      -24.984898       -4.586630
 H          -6.494029      -21.013466       -4.356881
 H          -8.113620      -21.367712       -3.719266
 H          -7.383879      -22.871595       -5.607246
 H          -6.001347      -23.354649       -4.513158
