20
 generated by VMD
 C         -40.997051     -104.362473      -36.261543
 N         -41.967903     -105.007088      -36.390736
 H         -38.299492     -104.538803      -33.618031
 H         -40.116482     -103.795044      -35.988392
 C         -38.281948     -105.425644      -32.988838
 C         -37.021133     -105.638077      -32.242889
 C         -39.401356     -106.358864      -33.375801
 C         -37.318321     -106.658363      -30.990088
 C         -39.434517     -107.422577      -32.299278
 C         -38.069946     -107.866989      -31.719593
 H         -36.595291     -104.727699      -31.812338
 H         -36.235844     -106.102081      -32.973679
 H         -40.343586     -105.902145      -33.410358
 H         -39.121910     -106.872627      -34.369156
 H         -37.742313     -105.989449      -30.299875
 H         -36.360332     -107.047684      -30.752121
 H         -39.957813     -108.230247      -32.748322
 H         -40.131935     -107.143089      -31.454784
 H         -38.208679     -108.706589      -30.958714
 H         -37.546654     -108.322784      -32.534950
