20
 generated by VMD
 C         -39.458405     -105.570168      -37.229317
 N         -40.526623     -105.156418      -37.040546
 H         -39.442299     -108.077454      -35.261822
 H         -38.539429     -106.063782      -37.427876
 C         -39.467327     -108.578346      -34.311169
 C         -38.337337     -108.503128      -33.345387
 C         -40.721825     -109.455864      -34.204384
 C         -38.913090     -108.556168      -31.917271
 C         -41.070156     -109.517349      -32.691635
 C         -39.986816     -109.540108      -31.753668
 H         -37.685844     -107.571899      -33.384529
 H         -37.671391     -109.391846      -33.420345
 H         -41.540966     -109.148293      -34.770260
 H         -40.300705     -110.327164      -34.664127
 H         -39.318291     -107.613632      -31.629475
 H         -38.129436     -108.814362      -31.237867
 H         -41.720089     -110.414879      -32.456570
 H         -41.647926     -108.691940      -32.298885
 H         -40.261162     -109.452202      -30.654341
 H         -39.533989     -110.493393      -31.827295
