20
 generated by VMD
 C         -59.799545     -157.549973      -56.723228
 N         -59.255428     -158.518402      -56.612270
 H         -60.225208     -157.502792      -53.087715
 H         -60.323845     -156.598068      -56.689861
 C         -59.773529     -158.383621      -52.636974
 C         -58.295696     -158.091141      -52.271053
 C         -60.077942     -159.820114      -53.084248
 C         -57.826019     -159.195267      -51.336334
 C         -59.591049     -160.819427      -52.028522
 C         -58.161484     -160.653305      -51.829231
 H         -58.108376     -157.230896      -51.748783
 H         -57.670933     -157.983566      -53.165325
 H         -61.178493     -159.991592      -53.088734
 H         -59.704182     -160.104813      -54.161770
 H         -58.375412     -159.220032      -50.305733
 H         -56.760384     -159.154953      -51.169968
 H         -59.745903     -161.819366      -52.501148
 H         -60.265678     -160.710342      -51.104160
 H         -57.794983     -161.366135      -50.947857
 H         -57.675259     -160.804123      -52.758820
