20
 generated by VMD
 C          -4.492961      -20.965631        2.460334
 N          -5.016852      -20.018538        2.731968
 H          -5.169349      -19.177837       -0.203598
 H          -6.029806      -20.729834       -0.407207
 C          -5.937746      -19.698444       -0.785211
 C          -5.557034      -19.760113       -2.288235
 C          -7.240978      -18.878281       -0.653224
 C          -6.709581      -20.559166       -2.943007
 C          -8.363341      -19.724531       -1.172605
 C          -8.132398      -20.082350       -2.615865
 H          -4.610895      -20.320419       -2.461819
 H          -5.511077      -18.821047       -2.760883
 H          -7.338112      -18.662083        0.502188
 H          -7.052018      -17.932085       -1.213111
 H          -6.659938      -21.605944       -2.779049
 H          -6.499457      -20.466082       -4.001697
 H          -9.271939      -19.104738       -1.086390
 H          -8.473166      -20.585012       -0.548452
 H          -8.750911      -20.906916       -2.912133
 H          -8.422405      -19.211792       -3.223903
