20
 generated by VMD
 C         -19.393654      -63.678482      -16.600105
 N         -20.171894      -62.995289      -17.127283
 H         -22.907700      -63.859055      -17.232573
 H         -18.793129      -64.454369      -16.094578
 C         -23.739334      -64.444229      -17.477571
 C         -24.396614      -64.173462      -18.872137
 C         -24.651279      -65.094048      -16.457270
 C         -24.750999      -65.494987      -19.473911
 C         -24.792171      -66.470131      -17.020607
 C         -25.422668      -66.408585      -18.383101
 H         -23.706497      -63.691826      -19.641495
 H         -25.396788      -63.713081      -18.667995
 H         -24.164162      -65.171280      -15.450900
 H         -25.606386      -64.499336      -16.314600
 H         -23.914772      -66.008133      -19.954287
 H         -25.521730      -65.437073      -20.239794
 H         -25.428837      -67.096252      -16.362062
 H         -23.815838      -66.943428      -17.156942
 H         -25.469776      -67.470955      -18.863632
 H         -26.495731      -66.232765      -18.246864
