20
 generated by VMD
 C         -38.511295     -109.773468      -36.268635
 N         -37.726295     -108.992714      -35.858543
 H         -41.394016     -110.776268      -37.162502
 H         -39.236057     -110.489853      -36.643009
 C         -41.691708     -111.140694      -36.196198
 C         -42.078262     -112.717606      -36.161369
 C         -42.339394     -110.518501      -34.984524
 C         -41.469582     -113.362167      -34.927937
 C         -41.802746     -111.074982      -33.753662
 C         -42.120155     -112.540749      -33.729004
 H         -41.733635     -113.229904      -37.065285
 H         -43.150990     -112.779984      -36.216618
 H         -42.144249     -109.419800      -34.953419
 H         -43.445892     -110.618881      -35.068092
 H         -40.385700     -113.362152      -34.950653
 H         -41.930099     -114.405083      -34.839287
 H         -42.255047     -110.627396      -32.822639
 H         -40.644501     -110.994087      -33.652950
 H         -41.800140     -112.980026      -32.625221
 H         -43.192814     -112.648094      -33.700974
