20
 generated by VMD
 C         -11.559891      -27.545959       -1.533398
 N         -12.043119      -26.563004       -1.674586
 H         -10.438422      -25.818441       -4.320375
 H          -9.133086      -25.621973       -5.358393
 C          -9.388500      -26.015535       -4.375326
 C          -8.990740      -27.491547       -4.158518
 C          -8.730354      -25.168352       -3.271381
 C          -7.519499      -27.775192       -4.071734
 C          -7.186331      -25.347914       -3.303763
 C          -6.752831      -26.846025       -3.130722
 H          -9.445705      -28.142992       -5.033406
 H          -9.564086      -27.926943       -3.367028
 H          -8.951917      -24.097269       -3.465390
 H          -9.114424      -25.267784       -2.248124
 H          -7.001751      -27.756039       -5.004982
 H          -7.342721      -28.803904       -3.799747
 H          -6.711267      -24.707161       -2.566063
 H          -6.801153      -24.994095       -4.266143
 H          -5.662367      -26.962875       -3.328349
 H          -6.909164      -27.213688       -2.127959
