20
 generated by VMD
 C         -26.691572      -71.880669      -17.530151
 N         -26.731621      -72.758377      -16.786732
 H         -24.315105      -69.346275      -18.805515
 H         -26.487236      -71.004723      -18.286867
 C         -24.651192      -69.739273      -19.744488
 C         -24.057383      -70.935509      -20.355629
 C         -25.699879      -68.940399      -20.434225
 C         -25.196276      -71.859604      -21.206017
 C         -26.686031      -69.877480      -21.171391
 C         -25.997065      -70.927330      -22.096079
 H         -23.615747      -71.730896      -19.752619
 H         -23.284203      -70.715195      -21.016420
 H         -26.162638      -68.376648      -19.682011
 H         -25.334152      -68.165802      -21.102268
 H         -25.731106      -72.455605      -20.381958
 H         -24.705757      -72.552597      -21.889393
 H         -27.382973      -69.306953      -21.791502
 H         -27.206604      -70.360107      -20.383944
 H         -26.750895      -71.549538      -22.645308
 H         -25.514544      -70.321571      -22.913631
