20
 generated by VMD
 C         -77.368118     -203.450470      -67.430099
 N         -77.984253     -204.382141      -67.080933
 H         -74.655968     -200.973862      -67.537491
 H         -76.746239     -202.612976      -67.469788
 C         -74.357231     -200.439713      -68.415558
 C         -74.946938     -199.135727      -68.751465
 C         -74.010445     -201.125259      -69.617371
 C         -73.869797     -198.259491      -69.535889
 C         -72.882233     -200.468201      -70.369591
 C         -73.308159     -199.032089      -70.682487
 H         -75.281532     -198.500443      -67.912262
 H         -75.829361     -199.289169      -69.311981
 H         -73.646774     -202.072647      -69.337578
 H         -74.807388     -201.218903      -70.364532
 H         -73.108917     -197.903809      -68.770752
 H         -74.398247     -197.302460      -69.816338
 H         -72.512695     -201.003189      -71.304955
 H         -72.016968     -200.499710      -69.637352
 H         -72.375557     -198.480179      -71.037148
 H         -73.987442     -199.011902      -71.546829
