20
 generated by VMD
 C          -5.931564      -20.997473        2.010360
 N          -6.078327      -22.081203        1.756357
 H          -4.981847      -18.747297       -0.902139
 H          -5.958689      -19.969845       -0.167953
 C          -5.827026      -19.483503       -1.125488
 C          -5.445564      -20.490601       -2.220167
 C          -7.134687      -18.830780       -1.426532
 C          -6.596648      -21.538511       -2.282547
 C          -8.287827      -19.796385       -1.405830
 C          -8.012043      -20.947571       -2.320954
 H          -4.552521      -20.975773       -2.006922
 H          -5.244718      -19.955540       -3.184513
 H          -7.354899      -18.025475       -0.663552
 H          -7.088265      -18.124693       -2.385146
 H          -6.484264      -22.256023       -1.500084
 H          -6.567591      -22.116882       -3.188607
 H          -9.205328      -19.275919       -1.704406
 H          -8.480781      -20.145506       -0.390235
 H          -8.811265      -21.689070       -2.234167
 H          -8.152247      -20.665813       -3.367219
