20
 generated by VMD
 C         -49.817825     -127.764214      -40.419632
 N         -50.731369     -127.878639      -41.105610
 H         -46.884171     -127.399719      -42.058701
 H         -48.926937     -127.605255      -39.848549
 C         -46.823799     -126.812119      -41.194611
 C         -45.743240     -127.341530      -40.181789
 C         -46.898876     -125.313881      -41.457359
 C         -44.446026     -126.774330      -40.645077
 C         -45.418907     -124.858963      -41.790302
 C         -44.393051     -125.284752      -40.836010
 H         -45.707695     -128.425522      -40.227470
 H         -46.146553     -126.994179      -39.130001
 H         -47.604820     -125.082710      -42.299686
 H         -47.270939     -124.850334      -40.560162
 H         -44.114273     -127.100426      -41.633801
 H         -43.780483     -127.049072      -39.835457
 H         -45.406158     -123.762756      -42.052994
 H         -45.245113     -125.262733      -42.753452
 H         -43.374107     -124.888206      -41.201351
 H         -44.484764     -124.797073      -39.860054
