20
 generated by VMD
 C         -49.047554     -126.794098      -38.775238
 N         -49.908115     -127.496696      -38.408840
 H         -46.483555     -124.357567      -38.938248
 H         -48.257366     -126.123657      -39.154015
 C         -45.645027     -123.811745      -39.435398
 C         -44.509338     -124.751236      -39.771709
 C         -45.947693     -122.636475      -40.324554
 C         -43.872540     -124.642639      -41.216011
 C         -45.230682     -122.520630      -41.668442
 C         -43.924484     -123.199257      -41.699368
 H         -44.794167     -125.850891      -39.816788
 H         -43.701469     -124.737381      -39.034138
 H         -46.932533     -122.376556      -40.509346
 H         -45.685154     -121.708900      -39.765347
 H         -44.222828     -125.291664      -41.990620
 H         -42.852554     -125.016289      -41.130642
 H         -45.223137     -121.464081      -41.968086
 H         -45.859112     -122.759087      -42.498005
 H         -43.425892     -123.143730      -42.749802
 H         -43.215088     -122.599197      -41.104408
