20
 generated by VMD
 C         -49.831364     -142.253387      -45.147255
 N         -49.020058     -143.028549      -45.342419
 H         -51.939301     -139.105682      -46.224861
 H         -50.689697     -141.634506      -45.166985
 C         -52.444206     -140.036713      -46.355797
 C         -52.431408     -140.171463      -47.914619
 C         -53.672661     -140.369827      -45.647312
 C         -52.843750     -141.618408      -48.283218
 C         -54.233994     -141.715897      -46.189331
 C         -54.244877     -141.917557      -47.682846
 H         -51.373829     -140.095993      -48.140018
 H         -53.032902     -139.335556      -48.260109
 H         -53.435425     -140.351196      -44.539883
 H         -54.571213     -139.684616      -45.787258
 H         -52.183929     -142.295914      -47.837418
 H         -52.963608     -141.590088      -49.313171
 H         -55.192440     -141.837967      -45.658112
 H         -53.587624     -142.546799      -45.815582
 H         -54.409374     -142.965103      -47.864113
 H         -54.886551     -141.199951      -48.084927
