20
 generated by VMD
 C         -47.973629     -134.019623      -47.577290
 N         -48.092400     -133.369263      -48.576565
 H         -49.563747     -134.171616      -44.172859
 H         -47.865299     -134.668823      -46.659557
 C         -50.093124     -134.950790      -43.667435
 C         -50.242653     -136.157990      -44.586494
 C         -51.052483     -134.797409      -42.594070
 C         -50.549568     -137.462799      -43.706013
 C         -51.415367     -136.047119      -41.810081
 C         -51.719772     -137.266083      -42.715542
 H         -49.224907     -136.316803      -45.185711
 H         -51.038017     -136.084900      -45.320862
 H         -50.663845     -134.179214      -41.741974
 H         -51.970440     -134.310333      -42.968807
 H         -49.650536     -137.944946      -43.286362
 H         -51.000507     -138.234421      -44.350937
 H         -52.143311     -135.712234      -41.037247
 H         -50.576504     -136.378326      -41.170567
 H         -51.736389     -138.143890      -42.122498
 H         -52.586651     -137.040054      -43.379364
