20
 generated by VMD
 C         -50.568558     -129.435547      -43.133640
 N         -50.391956     -128.271759      -43.044003
 H         -48.566093     -128.064545      -40.088501
 H         -50.505352     -130.469330      -43.467110
 C         -47.532555     -127.820381      -40.438225
 C         -46.430817     -128.706207      -39.883209
 C         -47.190399     -126.476395      -40.920155
 C         -45.369057     -128.895966      -40.989941
 C         -46.195415     -126.618713      -42.082355
 C         -45.005882     -127.505775      -41.670582
 H         -46.834076     -129.697372      -39.708786
 H         -46.103531     -128.196060      -38.922722
 H         -48.052704     -126.035210      -41.299789
 H         -46.665298     -125.898987      -40.055111
 H         -45.477104     -129.778336      -41.691525
 H         -44.457836     -129.409576      -40.533142
 H         -45.896717     -125.649139      -42.465725
 H         -46.751724     -126.940353      -42.909458
 H         -44.403610     -127.515747      -42.607193
 H         -44.415333     -126.913582      -40.898865
