20
 generated by VMD
 C         -23.527702      -53.196362      -13.959262
 N         -24.088438      -53.107128      -14.933741
 H         -20.612413      -55.303135      -14.915334
 H         -22.850441      -53.072552      -13.165192
 C         -19.488754      -55.318001      -14.522714
 C         -19.029049      -54.077755      -13.876628
 C         -18.586489      -56.523315      -14.619171
 C         -18.328438      -54.464619      -12.635406
 C         -17.406910      -56.601894      -13.642257
 C         -17.069365      -55.220997      -13.030071
 H         -19.913504      -53.392059      -13.805212
 H         -18.410089      -53.489517      -14.613958
 H         -19.126757      -57.492203      -14.502655
 H         -18.139505      -56.529160      -15.657660
 H         -19.038847      -55.035686      -12.023261
 H         -18.010767      -53.648335      -12.016772
 H         -16.574146      -57.076649      -14.118448
 H         -17.766525      -57.293804      -12.847169
 H         -16.369858      -55.298367      -12.146017
 H         -16.546041      -54.636852      -13.781059
