20
 generated by VMD
 C         -41.540791     -119.587860      -34.357658
 N         -41.486046     -120.249481      -35.281006
 H         -43.299942     -118.700645      -36.865124
 H         -41.786018     -118.911827      -33.479427
 C         -43.834644     -118.296951      -37.776474
 C         -42.953201     -118.330666      -38.976418
 C         -45.178776     -117.598434      -37.771748
 C         -43.768543     -118.646263      -40.259724
 C         -45.990875     -118.163422      -38.946396
 C         -45.117561     -117.877022      -40.194698
 H         -42.211361     -119.084007      -38.649273
 H         -42.456558     -117.234726      -38.900425
 H         -45.780373     -117.831940      -36.898033
 H         -45.015186     -116.575424      -37.754177
 H         -43.913368     -119.738014      -40.363037
 H         -43.056103     -118.381088      -41.109993
 H         -46.899441     -117.649979      -39.062424
 H         -46.254456     -119.187004      -38.861450
 H         -45.738285     -118.028877      -41.133560
 H         -44.926937     -116.813370      -40.289093
