20
 generated by VMD
 C         -56.241997     -149.408386      -45.972218
 N         -56.175514     -150.438477      -45.435196
 H         -53.974251     -148.010345      -47.688919
 H         -56.134132     -148.507584      -46.580662
 C         -53.900364     -147.415695      -48.631351
 C         -53.071766     -147.703766      -49.891075
 C         -54.710724     -146.105408      -48.539143
 C         -53.577873     -147.027008      -51.210037
 C         -55.269985     -145.646240      -49.863289
 C         -54.336754     -145.724731      -51.040291
 H         -52.801373     -148.814774      -50.128849
 H         -52.113110     -147.283844      -49.654476
 H         -55.621971     -146.243622      -47.862450
 H         -54.077747     -145.317947      -48.176670
 H         -54.139149     -147.779434      -51.788681
 H         -52.653503     -146.820648      -51.749706
 H         -55.688271     -144.718674      -49.774288
 H         -56.066139     -146.407455      -50.228073
 H         -54.988647     -145.434280      -51.885529
 H         -53.592083     -144.936447      -50.987759
