20
 generated by VMD
 C         -50.676033     -129.188202      -42.899445
 N         -50.298817     -128.300964      -42.310486
 H         -48.595818     -127.840164      -40.281887
 H         -51.133793     -129.955872      -43.481190
 C         -47.504242     -127.752823      -40.643780
 C         -46.367401     -128.486893      -40.038059
 C         -47.208160     -126.311974      -41.059818
 C         -45.148811     -128.437958      -41.038818
 C         -45.956291     -126.371414      -41.967503
 C         -44.704704     -127.016617      -41.453934
 H         -46.763313     -129.499725      -39.717426
 H         -46.138058     -128.020157      -39.123600
 H         -48.112675     -125.961159      -41.691444
 H         -46.907909     -125.649918      -40.332718
 H         -45.538059     -128.955048      -41.922337
 H         -44.318367     -128.884094      -40.461376
 H         -45.884998     -125.323318      -42.190571
 H         -46.346687     -126.743362      -42.932610
 H         -43.948883     -126.943726      -42.226822
 H         -44.359493     -126.387825      -40.648571
