20
 generated by VMD
 C         -47.915051     -139.714859      -46.079010
 N         -46.781048     -139.408279      -45.926186
 H         -51.001575     -138.814804      -44.691666
 H         -48.912086     -140.164093      -46.291821
 C         -51.828304     -139.184189      -45.298687
 C         -51.935036     -139.438080      -46.795868
 C         -53.181408     -138.854111      -44.613129
 C         -53.067818     -140.396973      -47.185059
 C         -54.237915     -139.992432      -44.959538
 C         -54.420628     -140.119400      -46.517097
 H         -51.001213     -139.720932      -47.198292
 H         -52.156803     -138.444931      -47.225868
 H         -52.953846     -138.911682      -43.504261
 H         -53.545334     -137.811279      -44.972630
 H         -52.811043     -141.370010      -46.883873
 H         -53.219429     -140.501282      -48.262867
 H         -55.341450     -139.861206      -44.611561
 H         -53.940594     -140.969543      -44.519478
 H         -54.953346     -141.097870      -46.648190
 H         -54.915558     -139.185699      -46.855019
