20
 generated by VMD
 C         -10.592886      -39.639736       -6.885359
 N         -11.168219      -40.100513       -6.052157
 H         -13.501818      -40.734425       -9.030026
 H         -14.956923      -39.878490       -9.316705
 C         -14.544312      -40.859684       -9.260959
 C         -15.191377      -41.687996       -8.192122
 C         -14.799621      -41.541935      -10.598536
 C         -16.645414      -41.952717       -8.520041
 C         -16.197655      -42.039764      -10.906881
 C         -16.773781      -42.778099       -9.754244
 H         -15.182614      -41.178364       -7.185574
 H         -14.715975      -42.662315       -7.970244
 H         -14.384556      -40.895618      -11.413178
 H         -14.151938      -42.463078      -10.697184
 H         -17.205574      -41.007664       -8.604033
 H         -17.222303      -42.382832       -7.638936
 H         -16.162554      -42.663189      -11.815174
 H         -16.725773      -41.104515      -11.084187
 H         -17.831188      -42.948647       -9.923039
 H         -16.179733      -43.661121       -9.572645
