20
 generated by VMD
 C         -19.664652      -57.726322      -17.034082
 N         -19.231956      -58.283379      -17.917416
 H         -22.104561      -59.909176      -17.171940
 H         -19.829033      -57.248962      -15.959769
 C         -22.571486      -60.701218      -16.444136
 C         -23.932436      -61.370026      -16.704157
 C         -21.931885      -60.899578      -15.119266
 C         -23.779446      -62.830608      -16.283442
 C         -21.579514      -62.311985      -15.213878
 C         -22.860655      -63.141987      -15.036263
 H         -24.149891      -61.303211      -17.805933
 H         -24.762220      -60.958126      -16.141592
 H         -21.202488      -60.145023      -14.951985
 H         -22.755541      -60.760567      -14.399177
 H         -23.346266      -63.329754      -17.206242
 H         -24.772648      -63.264954      -16.092155
 H         -20.908331      -62.628250      -14.429585
 H         -20.996950      -62.633492      -16.087967
 H         -22.612335      -64.238586      -14.978563
 H         -23.362526      -62.934361      -14.025006
