20
 generated by VMD
 C         -40.129284     -100.751884      -31.780880
 N         -40.837059     -100.240341      -31.027315
 H         -37.483910     -103.340683      -32.418213
 H         -39.353851     -101.138397      -32.547916
 C         -36.962303     -102.670219      -31.787039
 C         -35.808510     -102.262444      -32.592987
 C         -36.731609     -102.265656      -30.360336
 C         -35.675968     -100.769859      -32.586670
 C         -36.327705     -100.797623      -30.114241
 C         -35.448273     -100.324677      -31.176615
 H         -35.918484     -102.711151      -33.566547
 H         -34.914471     -102.777679      -32.169224
 H         -37.646542     -102.473892      -29.733097
 H         -36.009190     -102.941521      -29.994968
 H         -36.637703     -100.242828      -33.064659
 H         -34.865242     -100.550224      -33.304752
 H         -35.918018     -100.708977      -29.182007
 H         -37.305157     -100.233780      -30.061539
 H         -35.514187      -99.211662      -31.014748
 H         -34.399776     -100.567169      -30.962234
