20
 generated by VMD
 C         -33.655262      -96.799583      -25.995661
 N         -34.825180      -96.717865      -26.070866
 H         -35.332226      -94.047180      -27.418882
 H         -32.605495      -97.109352      -25.950821
 C         -34.965527      -94.187355      -28.435612
 C         -36.029854      -94.760147      -29.392048
 C         -33.663956      -93.745476      -28.889582
 C         -36.049900      -94.045837      -30.734295
 C         -33.764336      -93.092392      -30.288445
 C         -34.630665      -93.782249      -31.332500
 H         -37.021648      -94.700653      -29.001772
 H         -35.824718      -95.867355      -29.490360
 H         -33.125755      -93.054848      -28.203293
 H         -32.993309      -94.698906      -28.946613
 H         -36.557297      -93.090813      -30.689173
 H         -36.563641      -94.606400      -31.574139
 H         -32.785786      -92.801315      -30.527830
 H         -34.371010      -92.157272      -30.116251
 H         -34.768761      -93.056099      -32.089699
 H         -34.208302      -94.745308      -31.775898
