20
 generated by VMD
 C         -61.579899     -155.830322      -53.762878
 N         -61.591911     -155.004684      -54.538773
 H         -58.637825     -155.300293      -51.923576
 H         -61.540707     -156.435989      -52.892288
 C         -57.632698     -155.108124      -51.607716
 C         -57.379463     -154.410751      -50.292000
 C         -56.463932     -155.267944      -52.552307
 C         -56.086426     -154.924332      -49.466991
 C         -55.237045     -155.717453      -51.775616
 C         -54.919056     -154.881500      -50.439777
 H         -58.174141     -154.381927      -49.584087
 H         -57.266659     -153.430847      -50.721325
 H         -56.760162     -156.008865      -53.306496
 H         -56.424507     -154.239517      -53.035824
 H         -56.223572     -155.975937      -49.171211
 H         -55.983025     -154.308960      -48.583736
 H         -54.374111     -155.654175      -52.394753
 H         -55.394924     -156.799408      -51.546955
 H         -54.067543     -155.325912      -49.806293
 H         -54.586666     -153.863449      -50.579258
