20
 generated by VMD
 C         -78.518471     -209.171738      -77.111809
 N         -78.068359     -209.399734      -78.130882
 H         -78.978989     -211.674057      -74.105003
 H         -78.849602     -209.001099      -76.152184
 C         -79.139389     -212.047974      -73.045967
 C         -77.917915     -212.020950      -72.144806
 C         -80.366753     -212.991302      -72.796463
 C         -78.185280     -212.548676      -70.767143
 C         -80.632454     -213.046600      -71.318863
 C         -79.325317     -213.619156      -70.698067
 H         -77.449974     -211.060150      -72.024742
 H         -77.294189     -212.729126      -72.686501
 H         -81.176025     -212.706955      -73.421120
 H         -80.152489     -213.989029      -73.212959
 H         -78.583015     -211.778946      -70.093872
 H         -77.251030     -212.891312      -70.340508
 H         -81.552788     -213.792130      -71.099121
 H         -80.928734     -212.130188      -70.866783
 H         -79.477356     -213.890717      -69.680511
 H         -79.032692     -214.509323      -71.209770
