20
 generated by VMD
 C         -38.336182     -112.740799      -35.892796
 N         -37.780609     -112.114380      -36.703110
 H         -40.822258     -114.570450      -34.943092
 H         -39.071625     -113.047119      -35.140049
 C         -41.868004     -114.442612      -35.450642
 C         -41.974716     -114.569870      -36.976360
 C         -42.985252     -113.659370      -34.663372
 C         -43.371372     -114.809326      -37.459324
 C         -44.375816     -113.894043      -35.268024
 C         -44.460167     -113.838768      -36.788792
 H         -41.250736     -115.386551      -37.162781
 H         -41.384804     -113.657722      -37.371925
 H         -42.995541     -114.147766      -33.699684
 H         -42.824753     -112.620567      -34.396748
 H         -43.778126     -115.791222      -37.378887
 H         -43.407349     -114.565842      -38.550262
 H         -45.129997     -113.166405      -34.772984
 H         -44.726753     -114.963646      -35.119938
 H         -45.461990     -114.267387      -37.163456
 H         -44.286839     -112.783409      -37.245674
