20
 generated by VMD
 C         -50.637592     -129.095154      -44.320271
 N         -50.945621     -130.264023      -44.357224
 H         -49.152901     -128.229462      -41.467422
 H         -50.409603     -128.007233      -44.143150
 C         -48.129047     -128.447037      -41.176720
 C         -47.826027     -129.947495      -41.085960
 C         -47.021866     -127.392227      -40.757294
 C         -46.374001     -130.344254      -41.486382
 C         -45.725681     -127.812897      -41.413837
 C         -45.401131     -129.265717      -41.025726
 H         -48.514637     -130.641693      -41.672207
 H         -47.879612     -130.270691      -40.044399
 H         -47.242813     -126.434692      -41.169468
 H         -46.761730     -127.285133      -39.645519
 H         -46.297085     -130.255875      -42.558372
 H         -46.238197     -131.322418      -40.999599
 H         -44.871983     -127.248329      -41.131699
 H         -45.634048     -127.915916      -42.467579
 H         -44.414566     -129.586639      -41.376499
 H         -45.180492     -129.258209      -39.882580
