20
 generated by VMD
 C         -31.503748      -75.655403      -23.713650
 N         -30.956352      -76.140236      -24.660833
 H         -29.603430      -78.327316      -22.141058
 H         -31.983492      -75.209755      -22.941235
 C         -28.559435      -78.162407      -21.962294
 C         -27.629181      -78.357918      -23.152159
 C         -28.019363      -78.153343      -20.583841
 C         -26.281738      -77.405052      -23.039865
 C         -26.799814      -77.159737      -20.528803
 C         -25.764481      -77.422562      -21.585608
 H         -28.126911      -78.180847      -23.996187
 H         -27.276543      -79.368103      -23.060894
 H         -28.725063      -77.940811      -19.776052
 H         -27.458864      -79.137703      -20.341721
 H         -26.573328      -76.366806      -23.274881
 H         -25.596254      -77.706886      -23.823177
 H         -26.339161      -77.220390      -19.470119
 H         -27.128510      -76.159569      -20.829269
 H         -24.816362      -76.944557      -21.491865
 H         -25.413282      -78.503578      -21.406578
