20
 generated by VMD
 C         -13.308839      -30.976393       -8.273307
 N         -12.922441      -30.049150       -8.803531
 H         -11.466761      -32.192062       -6.556598
 H         -11.798286      -32.137337       -4.821580
 C         -11.382232      -32.813496       -5.584414
 C          -9.882166      -33.072464       -5.276552
 C         -12.187213      -34.081680       -5.712802
 C          -9.718629      -33.946625       -3.961523
 C         -12.024763      -34.921158       -4.491784
 C         -10.583117      -35.232800       -4.005835
 H          -9.241402      -32.163155       -5.225115
 H          -9.403728      -33.623119       -6.089929
 H         -13.262717      -33.836651       -5.898605
 H         -11.916909      -34.640827       -6.628299
 H          -9.904767      -33.391483       -3.052711
 H          -8.671598      -34.205952       -3.818741
 H         -12.653664      -35.849995       -4.632026
 H         -12.521816      -34.446613       -3.653431
 H         -10.648446      -35.618069       -2.966937
 H         -10.184563      -36.075996       -4.557497
