20
 generated by VMD
 C         -29.365095      -80.063744      -26.627663
 N         -29.852262      -80.178299      -27.687056
 H         -28.350546      -82.640152      -24.667400
 H         -28.869911      -80.007881      -25.571711
 C         -29.271059      -82.965523      -24.219507
 C         -29.281710      -82.816231      -22.762535
 C         -29.989525      -84.084381      -24.848261
 C         -30.681826      -82.859314      -22.250664
 C         -31.444878      -84.232643      -24.380068
 C         -31.558226      -84.152557      -22.788429
 H         -28.837397      -81.787102      -22.404060
 H         -28.833481      -83.634377      -22.261765
 H         -29.749203      -83.914909      -25.923204
 H         -29.498159      -84.999626      -24.617817
 H         -31.123240      -81.947021      -22.514606
 H         -30.727940      -82.959663      -21.100859
 H         -31.858541      -85.077888      -24.991991
 H         -31.923132      -83.329529      -24.815092
 H         -32.693359      -84.231384      -22.568100
 H         -31.081758      -85.038521      -22.397957
