20
 generated by VMD
 C         -12.445320      -27.376120       -2.636421
 N         -13.533136      -27.550463       -2.531598
 H         -10.652585      -27.047853       -3.859631
 H          -9.473310      -26.368214       -4.928564
 C          -9.566996      -27.037117       -4.118857
 C          -8.984388      -28.423250       -4.480046
 C          -8.764235      -26.404221       -2.985357
 C          -7.444922      -28.398851       -4.658637
 C          -7.296069      -26.367172       -3.256738
 C          -6.739694      -27.749624       -3.503695
 H          -9.417111      -28.893023       -5.358912
 H          -9.244469      -29.060541       -3.598972
 H          -9.204209      -25.414053       -2.907744
 H          -8.970683      -27.067595       -2.117867
 H          -7.259734      -27.730389       -5.564515
 H          -6.989110      -29.345167       -4.946824
 H          -6.760985      -25.774698       -2.447122
 H          -7.061067      -25.808352       -4.169098
 H          -5.679553      -27.690292       -3.572907
 H          -6.896398      -28.349604       -2.592190
