20
 generated by VMD
 C         -70.285797     -182.716278      -65.044518
 N         -70.660767     -183.715622      -65.552551
 H         -67.878105     -181.305038      -63.103535
 H         -70.054985     -181.793594      -64.595833
 C         -67.511292     -181.348328      -62.098972
 C         -67.803947     -182.529892      -61.062046
 C         -67.011986     -180.046112      -61.362259
 C         -66.519386     -182.839279      -60.338223
 C         -65.822289     -180.348419      -60.352310
 C         -66.018990     -181.632812      -59.553234
 H         -68.077919     -183.430252      -61.696606
 H         -68.712387     -182.194702      -60.347301
 H         -66.696167     -179.263321      -62.009857
 H         -67.784180     -179.610458      -60.804684
 H         -65.904396     -183.329025      -61.016582
 H         -66.637413     -183.566193      -59.609608
 H         -65.802116     -179.514267      -59.633915
 H         -64.862488     -180.342926      -60.849911
 H         -65.117805     -181.723190      -58.933922
 H         -66.753960     -181.335968      -58.753963
