20
 generated by VMD
 C         -72.627083     -199.345215      -65.313972
 N         -71.614166     -199.523911      -64.776596
 H         -71.307144     -196.004730      -67.060654
 H         -73.425262     -198.885834      -65.909576
 C         -72.184044     -195.732773      -67.627914
 C         -72.868217     -194.447098      -67.127441
 C         -72.670052     -196.504501      -68.796120
 C         -74.073700     -194.072510      -67.915695
 C         -74.204430     -196.449890      -68.978752
 C         -74.974846     -195.295624      -68.153488
 H         -72.004906     -193.770660      -67.279549
 H         -73.104340     -194.401627      -66.120728
 H         -72.080650     -196.041550      -69.689003
 H         -72.268913     -197.594574      -68.847458
 H         -73.826927     -193.687943      -68.879379
 H         -74.698814     -193.418076      -67.272346
 H         -74.627594     -197.470291      -68.764465
 H         -74.391182     -196.270126      -70.020424
 H         -75.881638     -195.120010      -68.869087
 H         -75.314919     -195.685562      -67.231171
