20
 generated by VMD
 C         -22.985699      -53.558407      -13.859589
 N         -23.611574      -52.827366      -14.430133
 H         -20.637190      -55.077477      -13.974422
 H         -22.328415      -54.006256      -13.064138
 C         -19.616138      -54.956238      -14.031506
 C         -19.055809      -53.647671      -13.791309
 C         -18.764273      -56.150761      -14.341019
 C         -17.947941      -53.757092      -12.766201
 C         -17.543039      -56.048523      -13.477456
 C         -16.879408      -54.633606      -13.425583
 H         -19.801134      -52.882900      -13.462284
 H         -18.753784      -53.189060      -14.799746
 H         -19.437996      -57.006855      -14.081526
 H         -18.524031      -56.198544      -15.416341
 H         -18.334196      -54.121922      -11.775949
 H         -17.430710      -52.831001      -12.550059
 H         -16.769907      -56.773262      -13.747024
 H         -17.867872      -56.305458      -12.431843
 H         -16.012238      -54.704765      -12.777201
 H         -16.492590      -54.239124      -14.314448
