20
 generated by VMD
 C         -50.512875     -129.219727      -43.894848
 N         -50.904995     -130.118896      -44.432194
 H         -49.192398     -128.043213      -40.714912
 H         -50.179981     -128.420624      -43.282284
 C         -48.195778     -128.314423      -41.153183
 C         -47.809628     -129.832733      -41.026096
 C         -47.073734     -127.318260      -40.920429
 C         -46.388229     -130.072174      -41.621082
 C         -45.613007     -127.814735      -41.371735
 C         -45.291679     -129.229111      -40.974960
 H         -48.525066     -130.555695      -41.581253
 H         -47.702812     -130.071259      -39.998890
 H         -47.246723     -126.379845      -41.384335
 H         -47.036503     -127.112755      -39.796394
 H         -46.494995     -129.731659      -42.717747
 H         -45.977516     -131.072250      -41.380299
 H         -44.869244     -127.119186      -40.973228
 H         -45.702202     -127.610580      -42.404793
 H         -44.333130     -129.510544      -41.419250
 H         -45.090347     -129.437134      -39.930271
