20
 generated by VMD
 C          -9.700467      -24.848986        0.588891
 N         -10.575516      -25.322939        0.071113
 H          -6.100787      -23.910820       -0.881626
 H          -7.877931      -23.567171       -0.981910
 C          -6.931228      -23.786894       -1.588559
 C          -7.208497      -25.085766       -2.498455
 C          -6.599961      -22.571325       -2.408412
 C          -8.193949      -24.798849       -3.758546
 C          -7.536932      -22.373621       -3.602796
 C          -7.596567      -23.635391       -4.493798
 H          -7.730621      -25.883615       -1.888466
 H          -6.240383      -25.349953       -2.906127
 H          -6.699424      -21.719751       -1.703385
 H          -5.572498      -22.683586       -2.703906
 H          -9.218267      -24.548044       -3.353177
 H          -8.153865      -25.700790       -4.422384
 H          -7.207022      -21.530855       -4.233231
 H          -8.589291      -22.144165       -3.336354
 H          -8.231484      -23.410852       -5.368968
 H          -6.664367      -23.873772       -4.969947
