20
 generated by VMD
 C         -28.779598      -88.266205      -25.646328
 N         -28.631458      -87.218071      -26.211363
 H         -31.108849      -89.412933      -26.845743
 H         -28.727842      -89.203392      -25.237555
 C         -32.125237      -89.076820      -26.697844
 C         -32.982391      -89.029495      -25.414953
 C         -32.873016      -88.977417      -28.046650
 C         -34.015022      -87.918129      -25.447969
 C         -33.979294      -87.972839      -28.009823
 C         -34.754280      -87.847755      -26.731218
 H         -32.363831      -88.924622      -24.595882
 H         -33.421803      -89.968666      -25.155134
 H         -32.230198      -88.619598      -28.812286
 H         -33.367889      -89.875740      -28.444355
 H         -33.374683      -87.046822      -25.433266
 H         -34.601643      -88.028282      -24.629002
 H         -34.660419      -88.126518      -28.939838
 H         -33.496563      -86.989288      -28.112751
 H         -35.451332      -86.905304      -26.714293
 H         -35.507172      -88.700203      -26.617027
