20
 generated by VMD
 C         -75.495293     -202.004135      -66.225182
 N         -76.281410     -202.607269      -65.653015
 H         -75.822609     -200.131744      -69.054016
 H         -74.694527     -201.423294      -66.723274
 C         -75.000450     -199.470276      -69.146812
 C         -74.900116     -198.129227      -68.351593
 C         -73.964668     -199.840683      -70.097321
 C         -73.414604     -197.730072      -68.286018
 C         -73.235611     -198.695328      -70.745300
 C         -72.668129     -197.775223      -69.618217
 H         -75.352936     -198.304550      -67.283470
 H         -75.566734     -197.393509      -68.892578
 H         -73.218651     -200.545563      -69.790710
 H         -74.544365     -200.378616      -70.897949
 H         -72.946983     -198.411438      -67.542755
 H         -73.315948     -196.799576      -67.644417
 H         -73.914917     -198.108017      -71.439102
 H         -72.312790     -199.150833      -71.373856
 H         -71.621918     -197.976456      -69.415627
 H         -72.640648     -196.718307      -69.994392
