20
 generated by VMD
 C         -40.999035     -104.422523      -36.224617
 N         -41.989319     -104.984062      -36.399921
 H         -38.327595     -104.390602      -33.488247
 H         -40.284145     -103.707405      -35.952263
 C         -38.262367     -105.416611      -32.972813
 C         -37.012825     -105.641907      -32.227295
 C         -39.326302     -106.320000      -33.352341
 C         -37.264355     -106.651398      -31.070538
 C         -39.428101     -107.402107      -32.284912
 C         -38.105232     -107.821007      -31.727299
 H         -36.639355     -104.702126      -31.782255
 H         -36.353474     -106.107300      -32.875484
 H         -40.315891     -105.811806      -33.472649
 H         -39.059505     -106.548264      -34.375027
 H         -37.939037     -106.176834      -30.267130
 H         -36.303589     -106.941216      -30.535034
 H         -40.027290     -108.236908      -32.794693
 H         -40.141457     -107.163849      -31.442091
 H         -38.299965     -108.560852      -30.906242
 H         -37.545776     -108.375153      -32.491867
