20
 generated by VMD
 C         -57.282093     -164.061920      -56.692432
 N         -57.275398     -163.005615      -57.249706
 H         -60.014061     -165.598297      -54.725208
 H         -57.444218     -165.034744      -56.172577
 C         -60.897896     -164.882416      -54.641022
 C         -61.715519     -165.353851      -53.472820
 C         -61.388287     -164.337494      -55.932919
 C         -63.064365     -164.675461      -53.467735
 C         -62.807716     -163.829437      -55.827682
 C         -63.764515     -164.696960      -54.892269
 H         -61.269596     -165.258270      -52.537754
 H         -61.816830     -166.430664      -53.537403
 H         -60.811531     -163.614212      -56.492195
 H         -61.353973     -165.234268      -56.541546
 H         -63.004852     -163.653534      -53.131577
 H         -63.645248     -165.188065      -52.763374
 H         -63.171597     -163.557327      -56.848560
 H         -62.709213     -162.911835      -55.494835
 H         -64.762131     -164.142029      -54.891750
 H         -63.900261     -165.712158      -55.435661
