20
 generated by VMD
 C         -29.688044      -88.019295      -25.473665
 N         -29.139286      -88.997810      -25.230423
 H         -31.452284      -90.473236      -27.683041
 H         -30.114830      -87.051178      -25.904448
 C         -32.320328      -89.805946      -27.523573
 C         -32.873432      -89.820091      -26.103168
 C         -33.326214      -89.441734      -28.615313
 C         -33.588116      -88.520752      -25.818085
 C         -34.218960      -88.174294      -28.271706
 C         -34.647057      -88.111931      -26.836264
 H         -32.201500      -90.010025      -25.257347
 H         -33.542225      -90.739998      -26.074505
 H         -32.762123      -89.285477      -29.583214
 H         -34.080650      -90.211876      -28.805563
 H         -32.874611      -87.666237      -25.689880
 H         -34.230236      -88.527901      -24.972424
 H         -35.162083      -88.299919      -28.803377
 H         -33.741104      -87.230972      -28.633026
 H         -34.932552      -87.073074      -26.723509
 H         -35.626438      -88.463715      -26.683678
