20
 generated by VMD
 C         -12.326624      -27.184462       -2.669004
 N         -13.248229      -27.668440       -2.274809
 H         -10.607163      -26.951170       -4.025959
 H          -9.424467      -26.311085       -5.242609
 C          -9.524040      -26.890774       -4.250039
 C          -9.013783      -28.365644       -4.449657
 C          -8.827651      -26.201618       -3.065985
 C          -7.454971      -28.398172       -4.643233
 C          -7.330808      -26.277031       -3.135318
 C          -6.794552      -27.652903       -3.449682
 H          -9.451753      -28.695198       -5.421791
 H          -9.202796      -29.068991       -3.604153
 H          -9.035963      -25.114756       -3.182122
 H          -9.241627      -26.566740       -2.101147
 H          -7.218841      -27.909369       -5.547010
 H          -7.172419      -29.445066       -4.597905
 H          -6.980555      -26.012650       -2.169022
 H          -7.030605      -25.467079       -3.825644
 H          -5.709091      -27.583364       -3.738860
 H          -6.778209      -28.292141       -2.555697
