20
 generated by VMD
 C         -68.799835     -180.344757      -62.439819
 N         -69.868523     -180.657593      -62.168964
 H         -67.047478     -180.688461      -59.502838
 H         -67.839973     -180.091309      -62.743992
 C         -66.456795     -179.893250      -59.813343
 C         -65.367859     -180.168976      -60.746807
 C         -66.388107     -178.647736      -59.086205
 C         -65.230141     -178.886124      -61.705452
 C         -66.302444     -177.445007      -60.018723
 C         -65.146065     -177.556305      -60.934059
 H         -65.538475     -181.160141      -61.313118
 H         -64.373428     -180.248520      -60.079224
 H         -67.328407     -178.690216      -58.459702
 H         -65.600891     -178.497086      -58.412216
 H         -65.992615     -178.915665      -62.557774
 H         -64.285065     -179.086990      -62.287292
 H         -66.252953     -176.581482      -59.410896
 H         -67.204071     -177.474197      -60.656425
 H         -65.053192     -176.771057      -61.682472
 H         -64.085129     -177.506744      -60.282063
