20
 generated by VMD
 C         -27.680124      -84.743172      -26.580645
 N         -27.530531      -85.891006      -26.688892
 H         -31.383987      -84.875854      -25.823902
 H         -27.623463      -83.610893      -26.448185
 C         -32.182861      -85.641205      -25.710279
 C         -32.384510      -86.142761      -24.360392
 C         -32.195530      -86.575272      -26.866850
 C         -33.601025      -87.048653      -24.328690
 C         -33.447803      -87.606956      -26.876652
 C         -33.735409      -88.150627      -25.438745
 H         -32.411808      -85.206841      -23.877396
 H         -31.371801      -86.570702      -23.965876
 H         -32.268635      -86.074478      -27.864902
 H         -31.345903      -87.194069      -26.942289
 H         -34.534081      -86.425636      -24.355324
 H         -33.876007      -87.485062      -23.339262
 H         -33.382618      -88.467438      -27.569132
 H         -34.249065      -87.012360      -27.292055
 H         -34.731430      -88.530083      -25.431700
 H         -33.001930      -88.900955      -25.109575
