20
 generated by VMD
 C         -58.506466     -152.047058      -49.423561
 N         -59.651463     -152.193939      -49.354839
 H         -56.041260     -149.871490      -48.089096
 H         -57.440914     -151.887436      -49.617699
 C         -55.238941     -149.657623      -48.748055
 C         -54.346684     -150.677612      -49.418907
 C         -54.841076     -148.216187      -48.950882
 C         -54.160740     -150.437363      -50.991856
 C         -54.795902     -147.992889      -50.456024
 C         -53.770184     -148.951828      -51.268589
 H         -54.721954     -151.717255      -49.274345
 H         -53.290283     -150.815689      -48.882183
 H         -55.676090     -147.571243      -48.518627
 H         -53.853497     -148.008591      -48.508942
 H         -55.200581     -150.557114      -51.337711
 H         -53.591068     -151.254807      -51.485622
 H         -54.510296     -147.016586      -50.528866
 H         -55.840691     -148.320236      -50.932369
 H         -53.856289     -148.655853      -52.358040
 H         -52.809593     -148.796371      -50.935963
