20
 generated by VMD
 C         -66.936836     -189.707031      -66.725517
 N         -66.548637     -189.096024      -67.663406
 H         -69.373642     -189.828796      -64.713142
 H         -67.198799     -190.091919      -65.784348
 C         -70.226654     -189.494705      -64.154533
 C         -71.345207     -190.430603      -63.862125
 C         -70.370338     -188.093079      -63.706333
 C         -72.741737     -189.826553      -64.156181
 C         -71.863792     -187.551315      -63.597446
 C         -72.958511     -188.582535      -63.179592
 H         -71.374290     -190.929703      -62.865395
 H         -71.183777     -191.351715      -64.550491
 H         -69.876167     -188.143768      -62.683193
 H         -69.808311     -187.442444      -64.508392
 H         -73.514061     -190.610275      -63.896381
 H         -72.931206     -189.624664      -65.180099
 H         -72.261292     -187.099213      -64.501656
 H         -71.774178     -186.837875      -62.773991
 H         -72.717186     -188.957397      -62.191368
 H         -74.095848     -188.187256      -63.086117
