20
 generated by VMD
 C         -57.125187     -163.870087      -56.729420
 N         -57.264927     -162.892822      -57.256123
 H         -60.067104     -164.174271      -54.393337
 H         -57.146648     -164.819458      -56.202129
 C         -60.883858     -164.766830      -54.595383
 C         -61.695946     -165.343887      -53.493465
 C         -61.437607     -164.483505      -55.932251
 C         -62.958492     -164.552063      -53.391014
 C         -62.821369     -163.832367      -55.799824
 C         -63.764259     -164.515137      -54.773674
 H         -60.996246     -165.509537      -52.600403
 H         -61.958748     -166.422852      -53.743797
 H         -60.656799     -163.957932      -56.563263
 H         -61.722687     -165.430023      -56.493938
 H         -62.608974     -163.549973      -53.066734
 H         -63.642891     -165.060287      -52.603596
 H         -63.283173     -163.813599      -56.794540
 H         -62.779171     -162.627792      -55.526466
 H         -64.579285     -163.860046      -54.624218
 H         -64.043983     -165.465744      -55.050568
