20
 generated by VMD
 C         -49.861092     -142.294312      -45.163681
 N         -48.964417     -143.065552      -45.341652
 H         -51.842503     -139.216843      -46.025944
 H         -50.776535     -141.708954      -45.113529
 C         -52.449142     -140.015167      -46.452717
 C         -52.436253     -140.227600      -47.826115
 C         -53.777084     -140.396042      -45.672829
 C         -52.842266     -141.580261      -48.270519
 C         -54.224873     -141.718369      -46.145527
 C         -54.237278     -141.895279      -47.680145
 H         -51.342682     -140.069778      -48.074413
 H         -52.911682     -139.510376      -48.505363
 H         -53.487980     -140.427689      -44.653290
 H         -54.405083     -139.656509      -46.027225
 H         -52.094299     -142.426346      -48.008846
 H         -52.753822     -141.604523      -49.412407
 H         -55.329071     -141.923126      -45.870277
 H         -53.603794     -142.477234      -45.612320
 H         -54.518448     -142.939606      -47.959499
 H         -55.102730     -141.306793      -48.172615
