20
 generated by VMD
 C         -49.167431     -140.891602      -45.441895
 N         -48.081829     -141.193954      -45.170166
 H         -51.321556     -138.503693      -46.142429
 H         -50.160564     -140.544037      -45.669125
 C         -51.965908     -139.396561      -46.262024
 C         -52.717789     -139.319595      -47.662163
 C         -52.815681     -139.896683      -45.086353
 C         -53.341320     -140.731995      -47.932877
 C         -53.552158     -141.176163      -45.446362
 C         -54.253086     -141.123474      -46.826469
 H         -51.913731     -139.136948      -48.408089
 H         -53.537521     -138.592026      -47.715820
 H         -52.246399     -139.897018      -44.196632
 H         -53.556774     -139.157516      -44.916786
 H         -52.726978     -141.701782      -47.957836
 H         -53.839111     -140.643417      -48.911579
 H         -54.123238     -141.630814      -44.704636
 H         -52.675652     -141.819733      -45.468143
 H         -54.733349     -142.086838      -47.048805
 H         -55.109711     -140.353729      -46.644829
