20
 generated by VMD
 C         -37.907928     -107.962349      -37.177677
 N         -38.632748     -107.976288      -38.070572
 H         -40.962719     -108.443008      -35.326653
 H         -37.378159     -107.968674      -36.259403
 C         -41.178284     -109.432648      -34.712635
 C         -40.158096     -110.535545      -34.874866
 C         -42.476654     -109.702324      -33.927895
 C         -39.974915     -111.497116      -33.559338
 C         -42.237316     -110.626633      -32.645802
 C         -41.326111     -111.823128      -33.027611
 H         -39.193188     -110.270554      -35.190365
 H         -40.558384     -111.233940      -35.593201
 H         -42.864128     -108.708092      -33.585945
 H         -43.236588     -110.276192      -34.491047
 H         -39.272320     -110.914093      -32.915634
 H         -39.552479     -112.447380      -33.932152
 H         -43.182400     -110.900734      -32.343990
 H         -41.761070     -110.138260      -31.801657
 H         -41.198547     -112.495338      -32.083012
 H         -41.824070     -112.587898      -33.742516
