20
 generated by VMD
 C         -11.161397      -33.562275       -9.377872
 N         -10.590057      -32.818886       -8.717555
 H         -12.009153      -35.576454       -7.736278
 H         -12.501964      -35.311092       -6.147684
 C         -12.536469      -36.045609       -6.924235
 C         -11.679482      -37.195419       -6.429818
 C         -14.017862      -36.360043       -7.100750
 C         -12.353477      -37.901546       -5.249498
 C         -14.661140      -37.209129       -5.995050
 C         -13.801391      -38.378662       -5.538686
 H         -10.661499      -36.856457       -6.202694
 H         -11.551095      -37.969707       -7.251733
 H         -14.507549      -35.421539       -7.259681
 H         -14.071564      -36.969868       -8.041694
 H         -12.413548      -37.303513       -4.316516
 H         -11.761726      -38.838985       -4.891744
 H         -15.634195      -37.605568       -6.331906
 H         -14.784376      -36.566097       -5.131255
 H         -14.155299      -38.834461       -4.643304
 H         -13.782558      -39.074356       -6.399248
