20
 generated by VMD
 C         -55.693306     -148.974380      -45.518639
 N         -55.075836     -149.533524      -44.689556
 H         -54.198051     -148.040039      -48.256721
 H         -56.100979     -148.516190      -46.378593
 C         -54.204884     -147.248352      -48.946739
 C         -53.127495     -147.347977      -49.955818
 C         -55.002926     -145.979507      -48.510464
 C         -53.477821     -146.312500      -51.106869
 C         -55.247169     -145.043411      -49.712616
 C         -53.916065     -144.857986      -50.606495
 H         -52.944149     -148.456985      -50.157337
 H         -52.136780     -147.054291      -49.526840
 H         -55.935989     -146.322128      -48.125977
 H         -54.438229     -145.560684      -47.759880
 H         -54.146816     -146.728302      -51.819843
 H         -52.495255     -146.168060      -51.606037
 H         -55.741268     -144.117462      -49.481823
 H         -55.884140     -145.675522      -50.347343
 H         -53.899078     -144.293381      -51.508060
 H         -53.109615     -144.392776      -49.987354
