20
 generated by VMD
 C         -38.922932     -107.945236      -37.505943
 N         -38.990177     -106.902809      -37.960602
 H         -40.175175     -108.347946      -35.073280
 H         -38.668030     -108.962799      -37.229435
 C         -40.353912     -109.131584      -34.341080
 C         -39.425926     -110.424919      -34.237122
 C         -41.875065     -109.329819      -34.121147
 C         -39.835873     -111.158745      -32.955051
 C         -42.065598     -110.088959      -32.828594
 C         -41.259842     -111.385078      -32.801086
 H         -38.320915     -110.150810      -34.247433
 H         -39.627850     -111.012383      -35.203022
 H         -42.469849     -108.407600      -34.279392
 H         -42.243351     -109.913284      -34.919621
 H         -39.272800     -110.652283      -32.099339
 H         -39.300270     -112.167709      -32.960201
 H         -43.084297     -110.362244      -32.720863
 H         -41.686985     -109.491516      -31.916172
 H         -41.390347     -111.790642      -31.845264
 H         -41.584030     -112.110435      -33.540939
