20
 generated by VMD
 C         -49.543808     -141.602737      -45.801876
 N         -49.409790     -142.065796      -44.775070
 H         -51.306610     -138.868164      -46.462177
 H         -49.631462     -141.156464      -46.753677
 C         -52.283150     -139.373535      -46.467232
 C         -52.864494     -139.434113      -47.804840
 C         -53.011223     -140.100540      -45.330708
 C         -53.135719     -140.915695      -48.088352
 C         -53.093098     -141.542450      -45.654259
 C         -53.839184     -141.676651      -47.008125
 H         -52.226025     -138.998642      -48.601433
 H         -53.839146     -138.893372      -47.857769
 H         -52.377224     -139.941360      -44.493450
 H         -53.881908     -139.678543      -45.052597
 H         -52.277641     -141.685287      -48.171329
 H         -53.665253     -140.910095      -49.112816
 H         -53.484158     -142.217941      -44.887081
 H         -52.099648     -141.880341      -45.648342
 H         -54.008808     -142.784454      -47.313847
 H         -54.894466     -141.310440      -46.757587
