20
 generated by VMD
 C          -9.669440      -24.881704        0.594512
 N         -10.598561      -25.353607        0.175566
 H          -6.274458      -24.083487       -0.878491
 H          -7.926494      -23.518412       -1.039829
 C          -6.985166      -23.758919       -1.630160
 C          -7.240825      -24.980476       -2.484370
 C          -6.541399      -22.496510       -2.465791
 C          -8.149012      -24.736206       -3.631647
 C          -7.502774      -22.378973       -3.632406
 C          -7.571192      -23.593311       -4.540290
 H          -7.516216      -25.830431       -1.876731
 H          -6.210304      -25.297674       -2.911853
 H          -6.538654      -21.554699       -1.897076
 H          -5.573101      -22.627132       -2.928977
 H          -9.104324      -24.419296       -3.269778
 H          -8.317171      -25.608459       -4.195681
 H          -7.252931      -21.466724       -4.227639
 H          -8.481493      -22.193789       -3.157495
 H          -8.248311      -23.418127       -5.400816
 H          -6.551301      -23.831755       -4.822959
