20
 generated by VMD
 C         -18.408094      -48.947971       -7.272695
 N         -19.136967      -49.754150       -7.500618
 H         -16.172331      -47.597679      -10.069167
 H         -16.383358      -49.041363      -11.124534
 C         -16.309258      -47.918930      -11.105615
 C         -15.138603      -47.461662      -12.047020
 C         -17.638292      -47.337692      -11.589831
 C         -15.469769      -47.986927      -13.439614
 C         -17.952768      -47.528248      -13.037142
 C         -16.768652      -47.362015      -13.957928
 H         -14.092389      -47.797493      -11.793989
 H         -15.075115      -46.379448      -11.918717
 H         -18.486326      -47.544949      -10.940063
 H         -17.558105      -46.248714      -11.463359
 H         -15.429785      -49.086613      -13.519229
 H         -14.686904      -47.684677      -14.143393
 H         -18.661089      -46.759304      -13.367034
 H         -18.390202      -48.529945      -13.286757
 H         -16.977184      -47.756329      -14.985732
 H         -16.601170      -46.238274      -14.047906
