20
 generated by VMD
 C         -32.199463      -94.675056      -25.435778
 N         -33.329144      -94.875664      -25.205399
 H         -33.985157      -95.092941      -28.496531
 H         -31.111010      -94.364037      -25.605572
 C         -34.240623      -94.057762      -28.767595
 C         -35.699780      -93.590950      -28.655386
 C         -33.381123      -93.540092      -29.892527
 C         -35.774441      -92.057671      -28.939531
 C         -33.665569      -92.016891      -30.030497
 C         -35.144691      -91.621895      -30.177835
 H         -35.891567      -94.008194      -27.650478
 H         -36.363335      -94.163109      -29.328169
 H         -32.284660      -93.728836      -29.778278
 H         -33.655231      -94.066826      -30.814796
 H         -35.527859      -91.368164      -28.136082
 H         -36.923222      -92.011208      -28.950294
 H         -33.279625      -91.599533      -30.970457
 H         -33.279362      -91.531685      -29.121431
 H         -35.354816      -90.529266      -30.296284
 H         -35.496475      -91.963913      -31.057096
