20
 generated by VMD
 C         -15.115108      -46.166847       -6.286225
 N         -14.734088      -47.171623       -6.012369
 H         -15.500104      -44.755596       -9.367568
 H         -14.717957      -44.766270      -10.856115
 C         -15.711178      -44.835777      -10.448922
 C         -16.428038      -43.597954      -11.000978
 C         -16.350306      -46.179729      -10.813483
 C         -16.595137      -43.932468      -12.499320
 C         -16.528509      -46.469509      -12.284245
 C         -17.301380      -45.324406      -12.862946
 H         -15.844377      -42.700668      -10.781941
 H         -17.360567      -43.549603      -10.455898
 H         -15.715757      -47.048336      -10.534309
 H         -17.255375      -46.316025      -10.238661
 H         -15.606155      -44.049313      -12.965948
 H         -17.095095      -43.130062      -13.033178
 H         -17.057478      -47.433914      -12.476910
 H         -15.592585      -46.554241      -12.720104
 H         -17.174866      -45.306099      -13.961143
 H         -18.311913      -45.394424      -12.536990
