20
 generated by VMD
 C         -18.104149      -49.600201       -8.667894
 N         -19.186850      -49.895176       -8.762691
 H         -16.527908      -47.238178       -9.923924
 H         -17.382401      -48.710266      -10.383251
 C         -16.770695      -47.840294      -10.808138
 C         -15.527647      -48.394318      -11.610704
 C         -17.660328      -46.997452      -11.745360
 C         -15.790992      -48.838528      -13.039088
 C         -18.064695      -47.896915      -12.911017
 C         -16.825056      -47.982327      -13.798461
 H         -15.147572      -49.218685      -11.022745
 H         -14.739790      -47.619946      -11.631653
 H         -18.588079      -46.788940      -11.224917
 H         -17.185400      -46.098606      -12.111739
 H         -16.303427      -49.803345      -13.014135
 H         -14.825106      -48.869370      -13.601199
 H         -18.799355      -47.451260      -13.488418
 H         -18.502678      -48.883251      -12.598542
 H         -17.162388      -48.401073      -14.811196
 H         -16.368294      -46.967545      -14.056953
