20
 generated by VMD
 C         -28.208397      -86.305107      -26.278881
 N         -27.916292      -87.217026      -26.972050
 H         -31.022320      -86.848457      -25.261526
 H         -28.379925      -85.502090      -25.465639
 C         -31.932476      -87.311615      -25.607357
 C         -32.936710      -87.830772      -24.689497
 C         -32.028172      -87.766602      -27.035772
 C         -34.372978      -87.604614      -25.034975
 C         -33.521358      -87.545097      -27.596914
 C         -34.664764      -87.995903      -26.535276
 H         -32.931934      -87.354172      -23.712582
 H         -32.595104      -88.805702      -24.591644
 H         -31.274952      -87.090843      -27.538019
 H         -31.691072      -88.789581      -27.026054
 H         -34.779270      -86.562843      -24.845825
 H         -35.138367      -88.234421      -24.425308
 H         -33.766880      -87.954094      -28.525528
 H         -33.654186      -86.441460      -27.709389
 H         -35.639938      -87.558533      -26.852285
 H         -34.641571      -89.043510      -26.659662
