20
 generated by VMD
 C         -60.475349     -169.769119      -55.164295
 N         -59.395687     -169.541687      -55.390968
 H         -63.154766     -170.730225      -56.745903
 H         -61.514725     -170.002502      -55.128574
 C         -63.255287     -169.668533      -56.943985
 C         -62.581059     -169.085388      -58.122887
 C         -64.016762     -168.676682      -55.996742
 C         -63.235237     -167.779007      -58.712219
 C         -64.582321     -167.465546      -56.768856
 C         -63.542454     -166.828506      -57.629688
 H         -62.388153     -169.736908      -58.880749
 H         -61.503571     -168.738480      -57.782944
 H         -64.768860     -169.186554      -55.521782
 H         -63.299793     -168.319855      -55.249481
 H         -64.053444     -168.231949      -59.318089
 H         -62.579090     -167.222519      -59.420834
 H         -64.788673     -166.690918      -56.021954
 H         -65.447449     -167.654648      -57.285000
 H         -64.037239     -165.936295      -58.029018
 H         -62.614864     -166.485733      -57.152851
