20
 generated by VMD
 C         -67.281616     -189.652695      -67.031265
 N         -66.777496     -190.113052      -66.061325
 H         -70.664352     -190.875366      -66.234123
 H         -67.773796     -189.483154      -67.989471
 C         -71.061806     -190.382309      -65.376610
 C         -72.138725     -191.114761      -64.638603
 C         -70.492218     -189.127762      -64.645592
 C         -73.224602     -190.087540      -64.266159
 C         -71.423935     -188.314911      -63.724133
 C         -72.596291     -189.144196      -63.178661
 H         -71.628593     -191.701416      -63.765614
 H         -72.615997     -191.892380      -65.260689
 H         -69.635422     -189.583710      -64.072495
 H         -70.108345     -188.532196      -65.407448
 H         -74.147522     -190.583588      -63.875645
 H         -73.574837     -189.552246      -65.127281
 H         -71.851448     -187.532974      -64.278015
 H         -70.744629     -187.942535      -62.947189
 H         -72.152878     -189.660751      -62.266140
 H         -73.409737     -188.534409      -62.833172
