20
 generated by VMD
 C         -11.204152      -33.549900       -9.325545
 N         -10.575706      -32.883026       -8.736886
 H         -12.095428      -35.380146       -7.770262
 H         -12.571322      -35.280380       -6.040560
 C         -12.531867      -35.962677       -6.900422
 C         -11.686867      -37.136307       -6.458285
 C         -13.981599      -36.361389       -7.087309
 C         -12.337112      -37.924942       -5.231428
 C         -14.641454      -37.187267       -5.975427
 C         -13.762031      -38.355534       -5.554432
 H         -10.701957      -36.774036       -6.139653
 H         -11.597571      -37.887020       -7.254403
 H         -14.635589      -35.453690       -7.271861
 H         -13.949637      -37.009460       -7.927188
 H         -12.353715      -37.214405       -4.397379
 H         -11.668087      -38.716953       -5.097175
 H         -15.638524      -37.606045       -6.400674
 H         -14.903498      -36.581158       -5.121574
 H         -14.228719      -38.832325       -4.669381
 H         -13.850283      -39.122101       -6.357636
