20
 generated by VMD
 C         -12.508971      -30.241190       -7.973231
 N         -13.466727      -30.079811       -7.425589
 H         -11.313775      -30.335743       -5.242793
 H         -10.402061      -30.727816       -3.674908
 C         -10.864435      -31.106552       -4.656221
 C          -9.616174      -31.584154       -5.423663
 C         -11.815869      -32.228397       -4.183670
 C          -8.940353      -32.788006       -4.756576
 C         -11.145300      -33.485039       -3.628950
 C          -9.950224      -33.936867       -4.424212
 H          -8.856667      -30.750118       -5.445563
 H          -9.902641      -31.780737       -6.411466
 H         -12.556209      -31.845587       -3.452478
 H         -12.349773      -32.586895       -5.095400
 H          -8.564359      -32.457104       -3.743069
 H          -8.062414      -33.170116       -5.373757
 H         -11.815498      -34.317745       -3.589581
 H         -10.867102      -33.201141       -2.596104
 H          -9.463247      -34.726948       -3.787603
 H         -10.357694      -34.365456       -5.417517
