20
 generated by VMD
 C         -51.131348     -130.784454      -46.196377
 N         -50.394329     -130.257080      -46.931305
 H         -48.026165     -132.159485      -44.442635
 H         -52.034885     -131.267242      -45.890434
 C         -48.049278     -132.401596      -43.351833
 C         -48.576187     -133.747223      -42.976334
 C         -48.134602     -131.214951      -42.392124
 C         -48.247856     -134.060272      -41.581768
 C         -47.876778     -131.617676      -40.948540
 C         -48.637863     -132.918655      -40.621105
 H         -48.264183     -134.559921      -43.546600
 H         -49.722969     -133.705826      -43.062717
 H         -47.235241     -130.563736      -42.779633
 H         -49.061031     -130.822983      -42.742290
 H         -47.155579     -134.206070      -41.436611
 H         -48.813461     -134.943405      -41.218067
 H         -48.127567     -130.759918      -40.376575
 H         -46.803772     -131.875610      -40.766132
 H         -48.494148     -133.189926      -39.524876
 H         -49.619560     -132.594482      -40.598621
