20
 generated by VMD
 C         -12.533566      -27.670675       -4.649551
 N         -13.149255      -27.941904       -5.532447
 H         -10.896593      -30.695824       -2.829956
 H         -11.007407      -29.275473       -3.798946
 C         -10.290454      -29.997763       -3.388919
 C          -9.612414      -30.684952       -4.571371
 C          -9.297715      -29.315424       -2.432520
 C          -8.732467      -29.643486       -5.345539
 C          -8.425570      -28.345943       -3.142570
 C          -7.703019      -28.908442       -4.376131
 H         -10.375647      -31.127510       -5.315219
 H          -9.081537      -31.557592       -4.220868
 H          -9.875161      -28.773342       -1.719648
 H          -8.790875      -30.055761       -1.806383
 H          -9.438255      -28.914034       -5.816150
 H          -8.221184      -30.156315       -6.197361
 H          -7.582644      -27.938801       -2.503208
 H          -8.880495      -27.425766       -3.450451
 H          -7.310819      -28.041239       -4.846633
 H          -6.916570      -29.626936       -4.012315
