20
 generated by VMD
 C         -27.493055      -72.759239      -18.002537
 N         -28.056934      -73.465897      -17.235462
 H         -24.864872      -70.697098      -18.667992
 H         -26.962652      -72.053375      -18.571156
 C         -25.067459      -70.842316      -19.763308
 C         -24.469469      -72.085052      -20.309330
 C         -25.606056      -69.777260      -20.646276
 C         -25.302534      -72.585770      -21.593914
 C         -26.494072      -70.409424      -21.688215
 C         -25.730240      -71.413322      -22.511051
 H         -24.417820      -72.950996      -19.539349
 H         -23.436138      -71.879234      -20.699768
 H         -26.202400      -68.971199      -20.192917
 H         -24.738043      -69.289093      -21.089197
 H         -26.143457      -73.218277      -21.193279
 H         -24.718355      -73.300735      -22.237633
 H         -27.012327      -69.645874      -22.298203
 H         -27.409260      -70.773712      -21.147335
 H         -26.309874      -71.764496      -23.416956
 H         -24.802942      -70.861977      -22.824793
