20
 generated by VMD
 C         -10.596967      -35.706680       -8.642353
 N         -10.504304      -36.701717       -8.167843
 H         -13.408635      -37.202652       -7.280529
 H         -14.354751      -37.924671       -6.009072
 C         -13.987354      -38.077118       -7.063320
 C         -13.065166      -39.362228       -6.953790
 C         -15.053613      -38.163654       -8.211113
 C         -13.886812      -40.669636       -7.120940
 C         -15.891000      -39.447224       -8.018301
 C         -14.914968      -40.655834       -8.230965
 H         -12.455865      -39.460499       -6.037493
 H         -12.410178      -39.305252       -7.837577
 H         -15.675178      -37.278679       -8.111578
 H         -14.500793      -38.121365       -9.088928
 H         -14.375443      -40.834152       -6.186401
 H         -13.205941      -41.496334       -7.232470
 H         -16.725906      -39.501312       -8.764134
 H         -16.300495      -39.506424       -7.008289
 H         -15.492630      -41.585651       -8.228578
 H         -14.429200      -40.617390       -9.180941
