20
 generated by VMD
 C         -29.445690      -90.017136      -25.224010
 N         -29.096283      -91.081383      -25.449501
 H         -32.259121      -91.353912      -27.178488
 H         -29.684433      -89.015816      -24.835867
 C         -33.143368      -90.829346      -27.482767
 C         -34.426170      -91.559723      -27.522436
 C         -32.868706      -89.699181      -28.466217
 C         -35.497604      -90.455307      -27.287798
 C         -33.972492      -88.579247      -28.266478
 C         -35.341225      -89.149223      -28.085337
 H         -34.405460      -92.302795      -26.679077
 H         -34.619797      -92.090019      -28.500561
 H         -31.993149      -89.110703      -28.152863
 H         -32.809486      -90.108536      -29.461931
 H         -35.487881      -90.119469      -26.187166
 H         -36.551720      -91.031708      -27.363523
 H         -34.010941      -87.948044      -29.223837
 H         -33.668808      -87.858215      -27.474768
 H         -35.970451      -88.420525      -27.637779
 H         -35.763832      -89.439087      -28.981680
