20
 generated by VMD
 C         -77.456184     -203.007278      -69.460327
 N         -77.873596     -203.842682      -68.754265
 H         -75.346268     -201.880905      -67.204163
 H         -76.981926     -202.177948      -69.946533
 C         -74.999763     -201.605438      -68.161674
 C         -75.179848     -200.126678      -68.557190
 C         -73.957108     -202.375809      -68.911308
 C         -74.676773     -199.716858      -69.941689
 C         -73.115631     -201.635910      -69.942886
 C         -74.107773     -200.747772      -70.854393
 H         -74.521172     -199.602753      -67.806755
 H         -76.127777     -199.711563      -68.359848
 H         -73.223404     -202.602066      -68.096397
 H         -74.458321     -203.334076      -69.331909
 H         -73.946625     -198.883743      -69.705742
 H         -75.529472     -199.134018      -70.391823
 H         -72.403702     -202.301071      -70.397179
 H         -72.425407     -200.927658      -69.457199
 H         -73.504448     -200.332520      -71.692039
 H         -74.795639     -201.363358      -71.265358
