20
 generated by VMD
 C         -60.775299     -155.135117      -52.413109
 N         -60.672928     -154.034286      -52.165764
 H         -57.712185     -154.413666      -52.897110
 H         -60.976334     -156.145935      -52.615089
 C         -57.030727     -154.046066      -52.144840
 C         -57.441280     -154.079514      -50.660206
 C         -55.759518     -153.415100      -52.553829
 C         -56.319000     -154.454422      -49.653458
 C         -54.674988     -153.881958      -51.568085
 C         -55.002594     -153.771713      -50.074100
 H         -58.196911     -154.724701      -50.379543
 H         -57.778011     -153.083481      -50.497326
 H         -55.463856     -153.568619      -53.600227
 H         -55.900127     -152.299408      -52.524113
 H         -56.327736     -155.546341      -49.403683
 H         -56.623348     -154.096054      -48.682083
 H         -53.892593     -153.232941      -51.812126
 H         -54.323605     -154.949219      -51.759941
 H         -54.151527     -154.129242      -49.462376
 H         -55.125355     -152.718384      -49.731586
