20
 generated by VMD
 C         -10.078785      -36.681843       -7.163465
 N         -10.305158      -36.547703       -8.250246
 H         -13.350925      -37.885441       -7.955595
 H         -14.468151      -38.451519       -6.726842
 C         -14.126202      -38.708282       -7.692092
 C         -13.428785      -40.062801       -7.546766
 C         -15.269600      -38.749180       -8.717700
 C         -14.399651      -41.295525       -7.444777
 C         -16.268822      -39.885414       -8.417849
 C         -15.541463      -41.231388       -8.536896
 H         -12.857373      -40.059563       -6.617825
 H         -12.827117      -40.182590       -8.440156
 H         -15.815147      -37.774792       -8.700475
 H         -14.776243      -38.909912       -9.681104
 H         -14.806638      -41.189762       -6.387132
 H         -13.828212      -42.215839       -7.591657
 H         -17.107889      -39.821266       -9.192619
 H         -16.728024      -39.781597       -7.441885
 H         -16.219254      -42.074963       -8.510315
 H         -15.031257      -41.292736       -9.496391
