20
 generated by VMD
 C         -28.216410      -83.860817      -27.286188
 N         -27.468334      -83.427284      -26.524342
 H         -31.883770      -84.149567      -26.086647
 H         -29.016590      -84.158600      -27.874283
 C         -31.606636      -85.212440      -25.748281
 C         -31.427969      -85.363441      -24.295355
 C         -32.007881      -86.427544      -26.464025
 C         -32.796452      -85.852631      -23.704166
 C         -33.286091      -87.134720      -25.863176
 C         -33.163837      -87.268936      -24.273355
 H         -31.192457      -84.332802      -24.060982
 H         -30.564056      -86.065651      -24.023254
 H         -32.382957      -86.099586      -27.499870
 H         -31.179445      -87.129776      -26.634527
 H         -33.625248      -85.202698      -24.004852
 H         -32.610584      -85.811150      -22.617676
 H         -33.408222      -88.061600      -26.420374
 H         -34.132496      -86.515739      -26.030855
 H         -33.991486      -87.702881      -23.875776
 H         -32.261959      -87.928085      -24.099781
