20
 generated by VMD
 C         -70.375427     -197.893250      -64.498627
 N         -69.874565     -197.960953      -65.552170
 H         -73.160599     -196.595047      -66.182678
 H         -71.004509     -197.758148      -63.649067
 C         -73.429512     -195.751251      -66.861244
 C         -73.134575     -194.413605      -66.373611
 C         -74.502762     -196.137146      -67.843330
 C         -72.969612     -193.485733      -67.511642
 C         -74.722198     -194.848282      -68.632957
 C         -73.516983     -193.933243      -68.884796
 H         -72.174171     -194.444733      -65.907623
 H         -74.018738     -193.969772      -65.785172
 H         -74.085266     -196.880157      -68.430977
 H         -75.427841     -196.446823      -67.394829
 H         -71.911392     -193.250214      -67.608437
 H         -73.470963     -192.564148      -67.223328
 H         -75.526802     -194.305679      -68.108910
 H         -75.182579     -195.237381      -69.523621
 H         -72.841652     -194.634140      -69.393097
 H         -73.699211     -193.086212      -69.461395
