20
 generated by VMD
 C         -30.088816      -80.207603      -26.428593
 N         -29.536688      -79.213730      -26.184980
 H         -28.411259      -82.843353      -25.422808
 H         -30.681889      -81.103027      -26.777641
 C         -29.183420      -82.872948      -24.681269
 C         -29.010542      -82.029106      -23.544287
 C         -30.043783      -84.020615      -24.684795
 C         -30.210018      -81.867096      -22.654165
 C         -31.145466      -83.978157      -23.585491
 C         -30.715328      -83.244003      -22.253588
 H         -28.743795      -81.064308      -23.929230
 H         -28.180786      -82.223038      -22.882870
 H         -30.331068      -84.075859      -25.706827
 H         -29.436850      -84.961838      -24.455265
 H         -31.013037      -81.332558      -23.310923
 H         -29.941835      -81.356071      -21.714659
 H         -31.484705      -84.979088      -23.479635
 H         -32.057289      -83.329506      -23.922390
 H         -31.643404      -83.365677      -21.647112
 H         -29.949360      -83.859413      -21.716267
