20
 generated by VMD
 C         -60.197479     -171.163620      -55.316036
 N         -59.337791     -171.907074      -55.046993
 H         -63.256653     -170.298248      -56.183247
 H         -60.994228     -170.463425      -55.427700
 C         -63.361061     -169.494812      -56.834785
 C         -62.363903     -168.514496      -57.544434
 C         -64.839539     -169.063202      -56.694626
 C         -62.976299     -167.888992      -58.747551
 C         -65.403625     -168.422333      -57.918972
 C         -64.417038     -167.496521      -58.512741
 H         -61.465939     -169.105713      -57.890156
 H         -62.042336     -167.778244      -56.782917
 H         -65.452415     -169.913239      -56.502270
 H         -64.920158     -168.481934      -55.728653
 H         -62.957016     -168.449554      -59.656494
 H         -62.427402     -167.033157      -59.069458
 H         -66.325485     -167.753571      -57.631592
 H         -65.803795     -169.187805      -58.676182
 H         -64.724899     -167.144135      -59.494175
 H         -64.446144     -166.610748      -57.822266
