20
 generated by VMD
 C         -67.932640     -178.322815      -57.946369
 N         -66.994919     -178.554626      -57.294689
 H         -65.065308     -176.670685      -59.270748
 H         -68.812355     -177.959442      -58.513916
 C         -64.786087     -175.621780      -59.543648
 C         -65.883781     -174.605301      -59.846657
 C         -63.463467     -175.344070      -60.006897
 C         -65.440453     -173.117859      -59.788490
 C         -63.053452     -173.964233      -59.971539
 C         -64.050812     -173.018799      -60.524727
 H         -66.713127     -174.850662      -59.274837
 H         -66.245628     -174.704895      -60.925652
 H         -62.805916     -176.023682      -59.491222
 H         -63.549873     -175.648590      -61.102383
 H         -65.317017     -172.805206      -58.779007
 H         -66.150307     -172.510330      -60.267647
 H         -62.039406     -173.733368      -60.458294
 H         -62.875950     -173.822708      -58.898384
 H         -63.692020     -172.021652      -60.439941
 H         -64.402847     -173.046326      -61.571693
