20
 generated by VMD
 C         -11.364085      -33.291531       -8.570445
 N         -10.577724      -33.832256       -9.175688
 H         -12.599540      -34.319324       -6.973535
 H         -12.818408      -34.861553       -5.255351
 C         -12.814116      -35.212967       -6.287642
 C         -11.593444      -36.158623       -6.331909
 C         -14.120197      -35.924656       -6.711795
 C         -11.891396      -37.365616       -5.509644
 C         -14.385159      -37.173798       -5.862772
 C         -13.197697      -38.161167       -5.890930
 H         -10.723561      -35.685959       -5.937663
 H         -11.420127      -36.458927       -7.369828
 H         -14.962000      -35.224712       -6.635375
 H         -14.000947      -36.144913       -7.750729
 H         -12.059281      -37.154125       -4.464776
 H         -11.096684      -38.066563       -5.671847
 H         -15.291447      -37.712593       -6.319124
 H         -14.647131      -36.937595       -4.879138
 H         -13.361242      -38.880970       -5.090720
 H         -12.960518      -38.786221       -6.802279
