20
 generated by VMD
 C         -59.368244     -158.264908      -56.346123
 N         -58.729046     -158.585815      -57.322735
 H         -60.603046     -158.048264      -53.044617
 H         -59.874687     -158.039368      -55.364529
 C         -60.006351     -158.928452      -53.061729
 C         -58.621861     -158.895309      -52.576130
 C         -60.582314     -160.197800      -53.274555
 C         -58.137905     -159.809799      -51.544987
 C         -60.188595     -161.255524      -52.197948
 C         -58.660622     -161.227509      -51.841389
 H         -58.538784     -157.826279      -52.200970
 H         -58.083179     -159.120224      -53.505287
 H         -61.759262     -160.079422      -53.162556
 H         -60.417297     -160.577087      -54.286724
 H         -58.240517     -159.446121      -50.552170
 H         -57.009987     -159.987717      -51.671059
 H         -60.437813     -162.324341      -52.482224
 H         -60.864113     -160.986679      -51.321133
 H         -58.518574     -161.913559      -51.032578
 H         -58.018429     -161.720688      -52.631691
