20
 generated by VMD
 C         -12.993790      -27.779099       -2.643864
 N         -13.920498      -27.305807       -3.041017
 H         -10.555271      -27.473370       -3.622685
 H          -9.573484      -26.579985       -4.773844
 C          -9.523388      -27.312689       -3.958715
 C          -8.921949      -28.667303       -4.309791
 C          -8.690863      -26.712139       -2.808346
 C          -7.469991      -28.473648       -4.893560
 C          -7.240968      -26.547729       -3.253956
 C          -6.587326      -27.855602       -3.770996
 H          -9.480760      -29.175507       -5.065380
 H          -8.944286      -29.459648       -3.473549
 H          -9.086164      -25.730936       -2.507354
 H          -8.751652      -27.262562       -1.841362
 H          -7.529841      -27.932451       -5.882482
 H          -7.121026      -29.505089       -5.151062
 H          -6.713523      -26.230934       -2.350481
 H          -7.070961      -25.730076       -3.983103
 H          -5.665858      -27.552143       -4.241900
 H          -6.414139      -28.613337       -2.996954
