20
 generated by VMD
 C         -58.189644     -150.940750      -49.126507
 N         -58.321705     -151.947906      -48.666199
 H         -55.435013     -149.934921      -47.779789
 H         -58.132481     -149.924866      -49.547459
 C         -55.308567     -149.484451      -48.783619
 C         -54.286194     -150.322342      -49.453461
 C         -55.125961     -148.079971      -48.953793
 C         -54.230904     -149.943604      -50.931969
 C         -54.831554     -147.717514      -50.398647
 C         -53.792076     -148.515533      -51.086872
 H         -54.720352     -151.334366      -49.302109
 H         -53.306534     -150.415619      -48.876293
 H         -55.838329     -147.355164      -48.550056
 H         -54.307819     -147.816071      -48.343529
 H         -55.187290     -150.277496      -51.362392
 H         -53.441116     -150.506027      -51.435570
 H         -54.344246     -146.655731      -50.547390
 H         -55.813011     -147.900848      -50.875854
 H         -53.724281     -148.149124      -52.153656
 H         -52.866516     -148.267029      -50.568527
