20
 generated by VMD
 C         -30.237858      -92.592857      -25.769701
 N         -29.545362      -92.399765      -24.886520
 H         -32.507706      -89.761848      -26.580812
 H         -30.916672      -92.902237      -26.604683
 C         -33.239822      -90.144676      -27.321661
 C         -34.080124      -91.379257      -27.064053
 C         -33.433311      -89.292839      -28.571302
 C         -35.394428      -91.212364      -27.828941
 C         -34.798325      -89.342514      -29.202305
 C         -35.282192      -90.788055      -29.257793
 H         -34.141296      -91.447212      -25.979824
 H         -33.377602      -92.169090      -27.184408
 H         -33.390312      -88.276192      -28.393082
 H         -32.717983      -89.439301      -29.330061
 H         -36.109562      -90.561813      -27.244236
 H         -35.848820      -92.218109      -27.846195
 H         -34.756622      -88.912155      -30.239176
 H         -35.575191      -88.741844      -28.731068
 H         -36.220997      -91.152084      -29.734579
 H         -34.437943      -91.379448      -29.779110
