20
 generated by VMD
 C         -79.371117     -209.231171      -76.160767
 N         -79.269447     -209.535721      -77.277840
 H         -77.597527     -209.328857      -73.061432
 H         -79.451508     -208.992889      -75.047623
 C         -78.021828     -209.953796      -72.268227
 C         -76.958038     -210.486359      -71.366173
 C         -78.994064     -210.954758      -72.811134
 C         -77.606873     -211.186478      -70.126488
 C         -79.681198     -211.606277      -71.646515
 C         -78.673561     -212.161942      -70.613678
 H         -76.080360     -209.869751      -71.072662
 H         -76.451355     -211.316971      -72.030960
 H         -79.899277     -210.539093      -73.308006
 H         -78.566544     -211.665710      -73.465698
 H         -78.056175     -210.471191      -69.437866
 H         -76.782288     -211.669510      -69.582138
 H         -80.016418     -212.611328      -72.160629
 H         -80.444221     -211.016647      -71.200127
 H         -79.302605     -212.501328      -69.773094
 H         -78.134361     -213.046616      -70.891724
