20
 generated by VMD
 C         -22.708855      -52.323689      -11.776998
 N         -22.471462      -52.644955      -10.661025
 H         -19.948965      -52.069427      -13.709283
 H         -22.513199      -51.778809      -12.957996
 C         -18.942148      -52.422455      -13.862874
 C         -17.920412      -51.739079      -14.766488
 C         -18.341902      -53.212311      -12.788892
 C         -16.534798      -52.348232      -14.561677
 C         -17.209093      -52.399441      -12.141779
 C         -16.065626      -52.068218      -13.143042
 H         -17.946739      -50.638248      -14.533035
 H         -18.083084      -51.905449      -15.833484
 H         -19.072529      -53.370743      -12.026703
 H         -18.048222      -54.181915      -13.147372
 H         -15.771469      -51.981232      -15.280023
 H         -16.611029      -53.452087      -14.665645
 H         -16.789618      -53.131432      -11.405285
 H         -17.527096      -51.441071      -11.612697
 H         -15.832666      -50.980225      -13.021921
 H         -15.146049      -52.665428      -12.892001
