20
 generated by VMD
 C         -29.529108      -74.645683      -19.765944
 N         -30.581835      -74.546478      -20.236084
 H         -25.848043      -73.479874      -18.757607
 H         -28.670166      -75.108017      -19.341751
 C         -25.757772      -73.466499      -19.856588
 C         -25.344519      -74.686745      -20.682234
 C         -25.392313      -72.158119      -20.503675
 C         -25.995981      -74.595322      -22.139942
 C         -26.016563      -72.088043      -21.867540
 C         -25.799780      -73.197578      -22.860998
 H         -25.669813      -75.511879      -20.208921
 H         -24.246006      -74.665672      -20.788326
 H         -25.774374      -71.257439      -19.860113
 H         -24.333872      -72.122505      -20.641138
 H         -27.087879      -74.632263      -22.045994
 H         -25.596977      -75.453598      -22.646038
 H         -25.577850      -71.271431      -22.465397
 H         -27.183758      -72.020744      -21.787249
 H         -26.426731      -73.084045      -23.748264
 H         -24.787621      -73.119713      -23.174782
