20
 generated by VMD
 C         -80.065628     -205.487579      -71.514725
 N         -80.044815     -206.615448      -71.548401
 H         -77.293930     -203.314774      -70.707413
 H         -80.000908     -204.412827      -71.764709
 C         -76.289116     -203.481262      -70.318741
 C         -75.170189     -202.515610      -70.589981
 C         -76.056656     -204.938568      -70.142601
 C         -73.824516     -203.133087      -70.382378
 C         -74.930466     -205.100418      -69.117607
 C         -73.689278     -204.437332      -69.671074
 H         -75.332207     -201.562225      -69.963547
 H         -75.229057     -202.239731      -71.625626
 H         -76.932022     -205.417038      -69.831383
 H         -75.796036     -205.251007      -71.109558
 H         -73.129364     -202.526779      -69.756042
 H         -73.223259     -203.259750      -71.303406
 H         -74.633698     -206.203232      -68.911606
 H         -75.230598     -204.621094      -68.202087
 H         -73.001457     -204.268692      -68.754845
 H         -73.193741     -205.255890      -70.143936
