20
 generated by VMD
 C         -57.925552     -164.474808      -56.653477
 N         -57.251377     -163.702057      -57.158722
 H         -60.394161     -164.147858      -53.805584
 H         -58.499088     -165.242966      -56.117355
 C         -61.023758     -164.770050      -54.456478
 C         -61.874615     -165.822937      -53.927235
 C         -61.280796     -164.362869      -55.838963
 C         -63.252628     -165.234482      -53.830578
 C         -62.751457     -163.996307      -55.975895
 C         -63.715714     -164.858017      -55.210846
 H         -61.472893     -166.292297      -52.971310
 H         -61.924923     -166.708817      -54.553581
 H         -60.526306     -163.701843      -56.179447
 H         -61.201202     -165.352921      -56.470627
 H         -63.253708     -164.328720      -53.158176
 H         -63.929737     -166.048172      -53.498100
 H         -62.925285     -163.976135      -56.983822
 H         -62.911850     -162.879211      -55.689548
 H         -64.648102     -164.332260      -55.185558
 H         -63.911880     -165.707016      -55.830326
