20
 generated by VMD
 C         -47.956547     -140.001587      -45.989861
 N         -46.916161     -139.701187      -45.745342
 H         -51.025097     -138.537186      -45.201027
 H         -49.023388     -140.079712      -46.228714
 C         -51.877872     -139.115280      -45.569851
 C         -52.088707     -139.466370      -46.941673
 C         -53.188183     -139.203445      -44.670185
 C         -53.148968     -140.510498      -47.251289
 C         -54.212177     -140.165344      -45.105129
 C         -54.470688     -140.237213      -46.551208
 H         -51.175106     -139.692215      -47.443962
 H         -52.358093     -138.498413      -47.425404
 H         -52.933945     -139.405304      -43.620434
 H         -53.548775     -138.197037      -44.532215
 H         -52.729538     -141.479858      -46.867908
 H         -53.197769     -140.575073      -48.401138
 H         -55.182674     -139.974457      -44.797783
 H         -53.903004     -141.129166      -44.703537
 H         -55.075882     -141.136871      -46.961666
 H         -54.953842     -139.323792      -46.958389
