20
 generated by VMD
 C         -11.379328      -33.775311       -9.249708
 N         -11.302982      -34.255737       -8.247396
 H         -11.459197      -37.328766       -8.068110
 H         -12.082511      -36.503262       -6.548285
 C         -12.238006      -37.363209       -7.250453
 C         -12.169305      -38.741112       -6.620794
 C         -13.647945      -37.168884       -7.855384
 C         -13.245472      -38.854748       -5.539543
 C         -14.741700      -37.411694       -6.897933
 C         -14.625991      -38.703033       -6.178363
 H         -11.186462      -38.955059       -6.191922
 H         -12.398737      -39.481754       -7.356811
 H         -13.729627      -36.108994       -8.225147
 H         -13.718782      -37.871307       -8.661768
 H         -13.120579      -38.075611       -4.780044
 H         -13.145433      -39.796673       -5.104124
 H         -15.721956      -37.347576       -7.508224
 H         -14.766162      -36.578972       -6.201292
 H         -15.429756      -38.824589       -5.384511
 H         -14.812165      -39.537823       -6.887410
