20
 generated by VMD
 C         -11.205791      -34.046711       -8.247729
 N         -10.902977      -33.673935       -9.278411
 H         -11.669008      -37.963428       -8.056372
 H         -12.348358      -37.058350       -6.616564
 C         -12.459468      -37.936581       -7.257222
 C         -12.455007      -39.308327       -6.602857
 C         -13.736904      -37.827888       -8.100037
 C         -13.722730      -39.608829       -5.738326
 C         -15.009529      -37.885635       -7.228508
 C         -15.055574      -39.225861       -6.460493
 H         -11.517815      -39.418503       -6.012099
 H         -12.434067      -40.072495       -7.424158
 H         -13.708230      -36.840965       -8.656192
 H         -13.840700      -38.667850       -8.755466
 H         -13.682455      -39.016205       -4.774227
 H         -13.717506      -40.701805       -5.567040
 H         -15.951170      -37.726116       -7.818272
 H         -14.938263      -37.106285       -6.536911
 H         -15.767700      -39.137238       -5.657271
 H         -15.440266      -39.999615       -7.107186
