20
 generated by VMD
 C         -59.458027     -158.198181      -56.816696
 N         -58.560680     -158.586472      -57.531387
 H         -60.379665     -158.128036      -53.543610
 H         -60.293297     -157.916870      -56.145710
 C         -59.989574     -159.015793      -53.037918
 C         -58.572365     -158.983917      -52.473408
 C         -60.601761     -160.380051      -53.219349
 C         -58.337132     -160.054855      -51.427998
 C         -60.283905     -161.337067      -52.043755
 C         -58.810257     -161.407455      -51.872654
 H         -58.434998     -158.008209      -52.048798
 H         -57.978100     -159.103592      -53.415020
 H         -61.679153     -160.448334      -53.273563
 H         -60.253181     -160.784439      -54.193764
 H         -58.581703     -159.779480      -50.358200
 H         -57.168674     -160.169281      -51.339687
 H         -60.748398     -162.288879      -52.294182
 H         -60.785435     -161.007629      -51.115143
 H         -58.420784     -162.355759      -51.291035
 H         -58.361885     -161.630875      -52.935417
