20
 generated by VMD
 C          -7.357273      -23.455318        1.744977
 N          -7.487295      -22.723545        2.590581
 H          -8.893784      -23.543602       -1.452223
 H          -9.424566      -22.411100       -2.672201
 C          -8.563957      -22.865150       -2.210777
 C          -7.676571      -23.576468       -3.192183
 C          -7.821937      -21.714142       -1.527866
 C          -6.961188      -22.627659       -4.116174
 C          -7.065249      -20.754400       -2.520924
 C          -6.177281      -21.542795       -3.413397
 H          -8.298898      -24.251633       -3.841017
 H          -6.977564      -24.048855       -2.531473
 H          -8.521041      -21.275976       -0.755138
 H          -7.016532      -22.096729       -0.876280
 H          -7.707261      -22.125309       -4.691082
 H          -6.364411      -23.136332       -4.855909
 H          -6.548850      -19.918484       -2.001769
 H          -7.816291      -20.202774       -3.126824
 H          -5.597772      -20.969854       -4.132613
 H          -5.427136      -22.062990       -2.821205
