20
 generated by VMD
 C         -35.466782      -97.309113      -25.790047
 N         -34.535458      -97.844719      -26.210838
 H         -35.612659      -94.184624      -27.644854
 H         -36.474274      -96.774559      -25.530266
 C         -35.256256      -94.389587      -28.663311
 C         -35.945004      -95.160873      -29.772539
 C         -33.969994      -93.786255      -29.004051
 C         -35.789341      -94.614761      -31.193638
 C         -33.773010      -93.280510      -30.457277
 C         -34.259789      -94.476860      -31.452076
 H         -36.940521      -95.323357      -29.513870
 H         -35.449551      -96.133743      -29.630732
 H         -33.834389      -92.993904      -28.296587
 H         -33.072216      -94.358719      -28.856598
 H         -36.256889      -93.667427      -31.264421
 H         -36.324707      -95.303375      -31.938868
 H         -32.729454      -93.080620      -30.662355
 H         -34.261822      -92.231735      -30.540953
 H         -34.214085      -94.092529      -32.609486
 H         -33.779934      -95.436852      -31.294090
