20
 generated by VMD
 C         -55.695564     -149.008408      -45.611969
 N         -55.163177     -149.609085      -44.729988
 H         -54.515553     -148.158432      -48.356869
 H         -56.321461     -148.460327      -46.270729
 C         -54.222980     -147.284470      -48.874184
 C         -53.165356     -147.219711      -49.933880
 C         -54.967827     -145.996902      -48.556931
 C         -53.440506     -146.313217      -51.098804
 C         -55.155304     -145.173874      -49.756939
 C         -53.982857     -145.047684      -50.619083
 H         -53.049694     -148.270828      -50.207916
 H         -52.133831     -147.049194      -49.374069
 H         -55.937862     -146.224228      -48.160439
 H         -54.393764     -145.377777      -47.768787
 H         -54.319309     -146.871292      -51.537476
 H         -52.642262     -146.311157      -51.871067
 H         -55.255779     -144.052521      -49.326221
 H         -56.008133     -145.474976      -50.317822
 H         -54.221256     -144.526871      -51.590858
 H         -53.159649     -144.587860      -50.162159
