20
 generated by VMD
 C         -11.974933      -31.533968       -8.309978
 N         -12.121672      -30.645319       -7.636118
 H         -11.419852      -34.723839       -7.938463
 H         -12.638256      -34.077808       -6.879254
 C         -11.790694      -34.723389       -6.922071
 C         -10.762743      -34.010498       -6.014798
 C         -12.257471      -36.036465       -6.342267
 C         -11.240489      -33.850777       -4.560010
 C         -12.610057      -35.929920       -4.859080
 C         -11.612562      -35.212330       -4.008759
 H         -10.441278      -33.063900       -6.339633
 H          -9.824925      -34.605453       -5.994681
 H         -13.091699      -36.454868       -6.900143
 H         -11.435322      -36.765133       -6.378997
 H         -12.202909      -33.304363       -4.615609
 H         -10.506058      -33.259689       -4.013821
 H         -12.828667      -36.912701       -4.532004
 H         -13.613447      -35.330002       -4.866197
 H         -11.976567      -35.102776       -3.004212
 H         -10.693671      -35.826019       -3.960259
