20
 generated by VMD
 C         -22.792259      -55.513557      -16.887552
 N         -23.064848      -54.419136      -17.042547
 H         -19.810110      -55.624249      -14.764421
 H         -22.185337      -56.525322      -16.689739
 C         -19.801357      -56.653748      -14.584688
 C         -20.783476      -57.001476      -13.463698
 C         -18.739460      -57.668278      -15.191116
 C         -21.008650      -58.569733      -13.300722
 C         -19.113058      -59.187023      -14.940928
 C         -19.668634      -59.376526      -13.463117
 H         -21.688723      -56.344498      -13.388222
 H         -20.196709      -56.664772      -12.556549
 H         -18.514475      -57.582935      -16.331423
 H         -17.757959      -57.497665      -14.764851
 H         -21.813084      -58.808426      -14.069569
 H         -21.454865      -58.752460      -12.319382
 H         -18.215336      -59.847382      -15.126378
 H         -19.901665      -59.521538      -15.617352
 H         -19.747139      -60.429409      -13.160522
 H         -18.882513      -59.020214      -12.833120
