20
 generated by VMD
 C         -20.150717      -57.309448      -16.808641
 N         -19.174967      -57.444088      -17.405952
 H         -22.503668      -59.591064      -17.480675
 H         -20.949589      -57.144482      -16.148575
 C         -22.495535      -60.444847      -16.672462
 C         -23.843971      -61.040543      -16.278816
 C         -21.184986      -60.832554      -16.110477
 C         -23.820141      -62.055351      -15.144209
 C         -21.182169      -62.214211      -15.421985
 C         -22.418797      -62.509434      -14.620451
 H         -24.192429      -61.657940      -17.154282
 H         -24.673759      -60.292030      -16.211618
 H         -20.383459      -60.799057      -16.896629
 H         -20.895187      -60.144527      -15.324795
 H         -24.255671      -62.985275      -15.579005
 H         -24.392445      -61.639622      -14.244431
 H         -20.277033      -62.398224      -14.777676
 H         -21.106468      -62.984444      -16.179232
 H         -22.532299      -63.591866      -14.412179
 H         -22.439425      -61.983707      -13.661189
