20
 generated by VMD
 C         -59.402023     -151.979568      -49.296391
 N         -58.739166     -152.285446      -50.211594
 H         -56.432137     -150.843582      -48.518726
 H         -59.874180     -151.754028      -48.364906
 C         -55.722221     -150.450043      -49.170586
 C         -54.756710     -151.471634      -49.676529
 C         -55.397808     -148.985245      -49.263988
 C         -54.307255     -150.982681      -51.044128
 C         -54.824600     -148.549850      -50.596882
 C         -53.683491     -149.511414      -50.999336
 H         -55.127155     -152.464615      -49.804249
 H         -53.938766     -151.718582      -48.920498
 H         -56.343956     -148.487900      -48.988842
 H         -54.723274     -148.819656      -48.436863
 H         -55.221401     -150.943939      -51.650070
 H         -53.564911     -151.596832      -51.536572
 H         -54.414639     -147.536316      -50.298485
 H         -55.655155     -148.573318      -51.308693
 H         -53.169029     -149.175278      -51.994389
 H         -52.959274     -149.557800      -50.228737
