20
 generated by VMD
 C         -40.798195     -102.408699      -34.999344
 N         -41.543415     -102.249107      -35.858780
 H         -40.019058     -104.737221      -32.157909
 H         -39.838863     -102.580582      -34.443699
 C         -38.876472     -104.829170      -32.060379
 C         -37.816212     -104.012024      -32.857662
 C         -38.347572     -105.941803      -31.184135
 C         -36.541668     -103.923180      -32.055431
 C         -37.116192     -105.603577      -30.413603
 C         -36.040493     -105.172867      -31.326502
 H         -38.142097     -102.915947      -33.041531
 H         -37.755527     -104.465263      -33.881012
 H         -39.164028     -106.320702      -30.476255
 H         -38.286488     -106.665314      -31.894812
 H         -36.735519     -103.220116      -31.248091
 H         -35.719410     -103.441063      -32.578423
 H         -36.607265     -106.450348      -29.975863
 H         -37.284428     -104.910370      -29.655777
 H         -35.121964     -104.865128      -30.747398
 H         -35.627171     -106.018661      -31.945480
