20
 generated by VMD
 C         -57.967163     -150.647034      -48.822620
 N         -58.011879     -151.822281      -48.637089
 H         -55.558548     -149.650620      -47.655231
 H         -57.771046     -149.609116      -48.891918
 C         -55.150414     -149.332184      -48.579441
 C         -54.370560     -150.333710      -49.463974
 C         -55.116596     -147.932404      -48.914719
 C         -54.213459     -149.818314      -51.012383
 C         -54.979916     -147.559875      -50.393791
 C         -53.770046     -148.309372      -51.106281
 H         -54.835365     -151.346100      -49.498592
 H         -53.385937     -150.610214      -48.909710
 H         -56.017647     -147.481659      -48.477352
 H         -54.398945     -147.291504      -48.400135
 H         -55.027073     -150.118500      -51.691483
 H         -53.355671     -150.500092      -51.285961
 H         -54.862339     -146.537964      -50.512917
 H         -55.905380     -147.952988      -51.039597
 H         -53.651787     -147.817505      -52.129410
 H         -52.929249     -148.080795      -50.455353
