20
 generated by VMD
 C         -40.311554     -100.244514      -30.074797
 N         -41.177742     -100.481239      -30.791363
 H         -37.307377     -101.889801      -30.515581
 H         -39.599854      -99.795990      -29.325089
 C         -36.537361     -101.139206      -30.815216
 C         -36.279133     -100.537262      -32.293068
 C         -35.331898     -100.959488      -29.941740
 C         -35.698311      -99.118301      -32.348049
 C         -34.751110      -99.515961      -30.136831
 C         -34.472889      -99.150734      -31.596189
 H         -37.192852     -100.526947      -32.936485
 H         -35.528706     -101.135941      -32.811718
 H         -35.768505     -101.003510      -28.905094
 H         -34.640118     -101.740128      -30.097691
 H         -36.386326      -98.404221      -31.923630
 H         -35.538647      -98.972641      -33.466351
 H         -33.772339      -99.648392      -29.600925
 H         -35.399597      -98.785263      -29.620028
 H         -33.923405      -98.261726      -31.691509
 H         -33.847565      -99.908363      -32.059742
