20
 generated by VMD
 C         -78.715874     -208.423813      -76.893982
 N         -79.113701     -208.378922      -75.824554
 H         -79.013062     -209.515350      -73.163902
 H         -78.345016     -208.538101      -77.979080
 C         -78.502296     -210.010941      -72.364029
 C         -77.140434     -209.594269      -72.022362
 C         -79.148529     -211.233627      -72.058113
 C         -77.115334     -209.711700      -70.516319
 C         -79.106400     -211.342117      -70.523582
 C         -77.711151     -211.006180      -69.948723
 H         -76.949287     -208.566864      -72.368393
 H         -76.345673     -210.211853      -72.506332
 H         -80.200432     -211.202057      -72.523506
 H         -78.568367     -212.049683      -72.515526
 H         -77.369347     -208.795883      -69.990761
 H         -76.045097     -209.885971      -70.321838
 H         -79.382111     -212.282303      -70.105293
 H         -79.819855     -210.602386      -70.145004
 H         -77.537880     -211.078476      -68.836716
 H         -77.187469     -211.918884      -70.304138
