20
 generated by VMD
 C         -10.608307      -25.583469       -0.831827
 N         -11.187423      -24.658695       -0.561101
 H          -6.638497      -25.419336       -0.953202
 H          -8.388439      -25.304846       -1.255578
 C          -7.344070      -25.202595       -1.710213
 C          -7.131060      -26.083942       -3.015668
 C          -7.037101      -23.710852       -1.957310
 C          -7.946066      -25.521320       -4.261715
 C          -7.857899      -23.239063       -3.207011
 C          -7.489618      -24.072836       -4.462042
 H          -7.345325      -27.160240       -2.855657
 H          -5.972071      -26.186888       -3.257812
 H          -7.284369      -23.106119       -1.045278
 H          -5.990712      -23.587946       -2.027185
 H          -9.065916      -25.652390       -4.232056
 H          -7.675388      -26.102554       -5.162120
 H          -7.634408      -22.207798       -3.477394
 H          -8.912451      -23.373396       -2.970391
 H          -8.054348      -23.676571       -5.319957
 H          -6.455884      -23.935303       -4.568263
