20
 generated by VMD
 C         -50.911209     -145.099426      -44.645493
 N         -50.982712     -146.224518      -44.444538
 H         -52.995125     -143.915878      -46.217480
 H         -51.012592     -144.033768      -44.784512
 C         -53.457462     -143.682480      -47.193260
 C         -52.580654     -143.737152      -48.415985
 C         -54.760799     -142.829636      -47.145832
 C         -53.441010     -143.641495      -49.674118
 C         -55.504574     -142.776962      -48.543072
 C         -54.448765     -142.492905      -49.634499
 H         -51.977158     -144.588699      -48.382328
 H         -51.844395     -142.890717      -48.328068
 H         -55.499924     -143.252167      -46.440338
 H         -54.516644     -141.965103      -46.714096
 H         -54.052361     -144.616165      -49.800568
 H         -52.893356     -143.452698      -50.617947
 H         -56.174168     -141.893097      -48.572716
 H         -56.052177     -143.813828      -48.725433
 H         -54.896667     -142.453781      -50.670002
 H         -54.086811     -141.487778      -49.500141
