20
 generated by VMD
 C         -18.073698      -48.554905       -7.377564
 N         -18.273075      -48.652031       -6.276675
 H         -16.390549      -48.111069      -10.237154
 H         -16.191643      -49.085690      -11.601325
 C         -16.345512      -48.072792      -11.307303
 C         -15.232705      -47.170044      -11.720170
 C         -17.735369      -47.620754      -11.799260
 C         -15.340140      -46.637825      -13.192692
 C         -17.648470      -47.499649      -13.321800
 C         -16.746559      -46.353260      -13.635726
 H         -14.221090      -47.607189      -11.436007
 H         -15.120413      -46.224140      -11.138051
 H         -18.474916      -48.366516      -11.449301
 H         -18.001293      -46.625084      -11.344283
 H         -14.928497      -47.389278      -13.886767
 H         -14.755717      -45.717888      -13.236549
 H         -18.687370      -47.229031      -13.746745
 H         -17.334158      -48.428646      -13.736938
 H         -16.778118      -46.201035      -14.679368
 H         -17.106514      -45.496235      -13.091683
