20
 generated by VMD
 C         -28.017405      -82.438248      -27.007761
 N         -27.236494      -83.307770      -26.848814
 H         -31.305906      -84.344353      -26.547901
 H         -28.683222      -81.724648      -27.284029
 C         -31.791269      -84.903763      -25.813122
 C         -31.342342      -84.729095      -24.395599
 C         -32.150116      -86.211601      -26.234261
 C         -32.247478      -85.446159      -23.346460
 C         -33.224468      -86.821083      -25.291933
 C         -32.615955      -86.896965      -23.853260
 H         -31.479397      -83.561684      -24.273571
 H         -30.238718      -84.975769      -24.290533
 H         -32.652203      -86.010399      -27.212851
 H         -31.401592      -86.973579      -26.354328
 H         -33.164509      -84.843620      -23.104650
 H         -31.767719      -85.459572      -22.320667
 H         -33.437046      -87.835686      -25.594007
 H         -34.133873      -86.226921      -25.295650
 H         -33.190296      -87.303322      -22.992039
 H         -31.657976      -87.328842      -23.971601
