20
 generated by VMD
 C         -29.569067      -88.513504      -25.961529
 N         -29.354445      -88.989792      -24.942944
 H         -31.356337      -90.174255      -27.603254
 H         -29.834417      -87.905685      -26.877878
 C         -32.388470      -89.843323      -27.463133
 C         -32.991394      -89.991325      -26.134621
 C         -33.285179      -89.404167      -28.578405
 C         -33.851959      -88.636421      -25.832592
 C         -33.983852      -88.074463      -28.302444
 C         -34.846771      -88.364571      -27.047421
 H         -32.096165      -90.051918      -25.444769
 H         -33.528149      -90.940163      -25.969809
 H         -32.556549      -89.324310      -29.402971
 H         -33.918900      -90.315804      -28.772015
 H         -33.146282      -87.879829      -25.712355
 H         -34.387733      -88.857002      -24.875282
 H         -34.609741      -87.897758      -29.185936
 H         -33.384705      -87.152939      -28.041784
 H         -35.430786      -87.563087      -26.738354
 H         -35.469368      -89.239563      -27.118023
