20
 generated by VMD
 C         -48.997604     -126.697372      -38.704067
 N         -49.769432     -127.490448      -38.450214
 H         -46.144482     -124.019341      -38.462177
 H         -48.268620     -126.072258      -39.159210
 C         -45.707409     -123.778481      -39.518940
 C         -44.445068     -124.681519      -39.719673
 C         -45.831776     -122.457878      -40.208183
 C         -43.984562     -124.572037      -41.179127
 C         -45.244873     -122.544098      -41.647430
 C         -43.880604     -123.149406      -41.749321
 H         -44.755882     -125.744911      -39.352612
 H         -43.714142     -124.171532      -39.122013
 H         -46.886986     -122.097733      -40.386955
 H         -45.299564     -121.670540      -39.671631
 H         -44.725945     -125.075760      -41.873634
 H         -43.083523     -125.223885      -41.317036
 H         -45.365631     -121.549240      -42.106510
 H         -46.000767     -123.262978      -42.110668
 H         -43.617908     -123.171623      -42.757179
 H         -43.227753     -122.488792      -41.214413
