20
 generated by VMD
 C         -31.494862      -76.863327      -24.853811
 N         -32.026432      -77.029068      -25.854109
 H         -29.413061      -77.128815      -22.213009
 H         -30.820326      -76.708923      -24.011372
 C         -28.535383      -77.711243      -22.170961
 C         -27.519329      -77.975739      -23.210737
 C         -28.730455      -78.801659      -21.267406
 C         -26.181372      -78.628029      -22.679600
 C         -27.432310      -79.325607      -20.547501
 C         -26.421101      -79.642639      -21.558676
 H         -27.218287      -76.954323      -23.591101
 H         -27.966101      -78.419159      -24.148613
 H         -29.477999      -78.592148      -20.405035
 H         -29.315405      -79.572762      -21.795382
 H         -25.529154      -77.820663      -22.310507
 H         -25.690954      -79.219261      -23.508509
 H         -27.712166      -80.314217      -19.929972
 H         -27.161613      -78.503197      -19.776844
 H         -25.507643      -79.938339      -21.053595
 H         -26.753210      -80.562531      -21.998487
