20
 generated by VMD
 C         -11.923747      -41.307556       -7.643735
 N         -11.738050      -40.629303       -6.778121
 H         -13.897928      -40.851128       -8.233800
 H         -15.092422      -40.136475       -9.366150
 C         -14.720443      -41.047287       -8.944405
 C         -15.840775      -41.605469       -8.139697
 C         -14.290603      -42.004856      -10.043099
 C         -16.952854      -42.251091       -8.943536
 C         -15.407101      -42.439922      -10.958289
 C         -16.527214      -43.064846      -10.139106
 H         -16.289499      -40.831264       -7.471749
 H         -15.484966      -42.472942       -7.538721
 H         -13.546000      -41.459648      -10.687973
 H         -13.751028      -42.846581       -9.603812
 H         -17.565550      -41.396820       -9.287011
 H         -17.656530      -42.774960       -8.331676
 H         -15.017353      -43.034973      -11.698553
 H         -15.785744      -41.498127      -11.464755
 H         -17.381077      -43.151737      -10.800567
 H         -16.290779      -44.046284       -9.786723
