20
 generated by VMD
 C         -18.064838      -48.556660       -7.367212
 N         -18.183846      -48.546741       -6.248289
 H         -16.394875      -48.229572      -10.123143
 H         -16.079832      -49.122646      -11.763436
 C         -16.385260      -48.150772      -11.249565
 C         -15.266857      -47.089603      -11.724460
 C         -17.715775      -47.669964      -11.803912
 C         -15.330820      -46.585766      -13.154665
 C         -17.624418      -47.450344      -13.292846
 C         -16.745008      -46.242645      -13.650868
 H         -14.329427      -47.588398      -11.627978
 H         -15.390532      -46.314407      -10.973622
 H         -18.515091      -48.395344      -11.638621
 H         -18.074711      -46.816509      -11.266850
 H         -14.845219      -47.337551      -13.806097
 H         -14.674340      -45.707573      -13.333024
 H         -18.671677      -47.421886      -13.753425
 H         -17.054716      -48.292274      -13.748164
 H         -16.705273      -46.086819      -14.771439
 H         -17.113750      -45.258923      -13.241121
