20
 generated by VMD
 C         -18.197472      -50.079464       -8.896946
 N         -19.294039      -50.012531       -9.057240
 H         -16.294613      -47.188290      -10.107781
 H         -17.205242      -48.684261      -10.390238
 C         -16.717493      -47.844967      -10.869898
 C         -15.530941      -48.242134      -11.675144
 C         -17.679873      -47.035976      -11.728853
 C         -16.078741      -49.254463      -12.688322
 C         -18.007288      -47.652035      -13.074524
 C         -16.837814      -48.421104      -13.753520
 H         -14.811542      -48.770954      -10.985619
 H         -15.056814      -47.468529      -12.278240
 H         -18.648409      -46.872597      -11.239867
 H         -17.191341      -46.039333      -11.893546
 H         -16.663237      -50.000996      -12.126842
 H         -15.221622      -49.655960      -13.196014
 H         -18.369066      -46.805405      -13.783334
 H         -18.856035      -48.294640      -12.904559
 H         -17.136320      -49.084095      -14.565329
 H         -16.172426      -47.712753      -14.260770
