20
 generated by VMD
 C         -22.389574      -68.311378      -16.627031
 N         -22.054802      -68.517609      -15.522695
 H         -23.983614      -65.622696      -18.743324
 H         -22.495893      -68.015236      -17.592918
 C         -24.619822      -66.517624      -18.947746
 C         -24.064547      -67.160927      -20.212923
 C         -26.153683      -66.560791      -18.953941
 C         -24.440687      -68.618828      -20.262222
 C         -26.672613      -68.068169      -19.183067
 C         -25.946985      -68.738647      -20.445637
 H         -22.953650      -67.131500      -20.079731
 H         -24.414112      -66.593040      -20.979654
 H         -26.589720      -66.323853      -17.946999
 H         -26.599461      -65.865623      -19.795084
 H         -24.174479      -69.013657      -19.232405
 H         -23.754616      -69.131256      -21.002775
 H         -27.785673      -68.149757      -19.318411
 H         -26.455173      -68.817627      -18.398922
 H         -26.070606      -69.835228      -20.415031
 H         -26.391489      -68.271568      -21.309757
