20
 generated by VMD
 C         -79.824501     -205.424286      -71.643097
 N         -79.864822     -206.546188      -71.568840
 H         -76.064331     -204.289261      -72.045692
 H         -79.672096     -204.377319      -71.977501
 C         -76.255150     -203.966965      -71.040756
 C         -75.432281     -202.847992      -70.427162
 C         -76.320045     -205.079834      -70.022163
 C         -73.951248     -203.304703      -70.266319
 C         -75.085609     -205.202545      -69.152237
 C         -73.836967     -204.732651      -69.771873
 H         -75.819885     -202.654099      -69.434128
 H         -75.562515     -201.826965      -70.922989
 H         -77.135941     -205.035233      -69.286972
 H         -76.570114     -205.936218      -70.659584
 H         -73.460815     -202.590347      -69.676224
 H         -73.458206     -203.209473      -71.237228
 H         -74.982918     -206.197723      -68.812981
 H         -75.370132     -204.565872      -68.215027
 H         -73.038155     -204.638794      -69.044891
 H         -73.373856     -205.334335      -70.595512
