20
 generated by VMD
 C         -49.013290     -133.054291      -47.118912
 N         -48.181950     -133.193634      -48.010056
 H         -48.460640     -134.493713      -43.745869
 H         -49.917904     -133.207275      -46.481033
 C         -49.485783     -134.911728      -43.828079
 C         -49.846916     -136.236816      -44.403000
 C         -50.567417     -134.265533      -43.022926
 C         -50.259937     -137.213028      -43.320347
 C         -51.070274     -135.309204      -41.884453
 C         -51.460293     -136.615356      -42.427181
 H         -49.087143     -136.729263      -45.011337
 H         -50.737957     -136.170563      -44.994293
 H         -50.263382     -133.237625      -42.541557
 H         -51.432987     -134.072708      -43.660305
 H         -49.387188     -137.529297      -42.716324
 H         -50.589066     -138.207733      -43.811714
 H         -51.842281     -134.923981      -41.252842
 H         -50.168659     -135.336578      -41.265385
 H         -51.662212     -137.356003      -41.527912
 H         -52.282204     -136.430511      -43.101501
