20
 generated by VMD
 C         -30.235214      -80.113533      -26.361090
 N         -29.285013      -79.532967      -26.627371
 H         -28.598700      -82.596016      -25.492512
 H         -30.943628      -80.862465      -25.839811
 C         -29.232288      -82.830254      -24.700624
 C         -29.030430      -82.104263      -23.270731
 C         -30.025373      -84.104752      -24.752106
 C         -30.314205      -82.074738      -22.523071
 C         -31.207096      -84.063744      -23.764469
 C         -30.926611      -83.521301      -22.444714
 H         -28.731106      -81.114777      -23.546244
 H         -28.306768      -82.683121      -22.751793
 H         -30.395000      -84.391426      -25.744553
 H         -29.394413      -84.986145      -24.397156
 H         -31.069376      -81.365761      -22.943317
 H         -30.193542      -81.587021      -21.502888
 H         -31.585487      -85.081657      -23.616608
 H         -32.111526      -83.502266      -24.267490
 H         -31.903946      -83.523048      -21.800871
 H         -30.113461      -84.027283      -21.906216
