20
 generated by VMD
 C         -25.805248      -71.222168      -17.052208
 N         -25.798800      -71.862694      -16.082809
 H         -23.907129      -68.854759      -18.775265
 H         -25.903648      -70.534874      -17.983389
 C         -24.556288      -69.258926      -19.544506
 C         -23.939003      -70.161133      -20.504847
 C         -25.736654      -68.604118      -20.118141
 C         -24.977625      -70.980614      -21.264862
 C         -26.805807      -69.428276      -20.844820
 C         -26.092352      -70.229088      -21.902752
 H         -23.254734      -70.847298      -19.808292
 H         -23.299749      -69.598114      -21.232082
 H         -26.265972      -68.022591      -19.327215
 H         -25.511358      -67.739853      -20.841885
 H         -25.389343      -71.724251      -20.555765
 H         -24.429653      -71.467712      -22.063643
 H         -27.609299      -68.908897      -21.359627
 H         -27.331375      -69.993217      -20.122778
 H         -26.635281      -71.067688      -22.358549
 H         -25.849983      -69.701241      -22.815809
