20
 generated by VMD
 C         -67.984192     -178.704605      -58.126102
 N         -66.921799     -178.358078      -57.794964
 H         -65.544182     -176.276764      -58.509697
 H         -68.893196     -179.168686      -58.432869
 C         -65.181427     -175.740295      -59.426884
 C         -66.084961     -174.746658      -60.088963
 C         -63.722984     -175.761108      -59.876930
 C         -65.412643     -173.374542      -60.055744
 C         -63.087498     -174.338364      -59.769032
 C         -63.921204     -173.302322      -60.532406
 H         -67.092896     -174.814270      -59.545303
 H         -66.350075     -174.984528      -61.136906
 H         -63.169910     -176.454636      -59.167706
 H         -63.758308     -176.113586      -60.958591
 H         -65.562309     -172.776154      -59.103577
 H         -66.040863     -172.730637      -60.738926
 H         -62.048958     -174.276062      -60.157757
 H         -62.947929     -174.021393      -58.713894
 H         -63.361713     -172.396698      -60.207336
 H         -63.777046     -173.358002      -61.615292
