20
 generated by VMD
 C         -50.663689     -127.692642      -40.855721
 N         -51.318783     -128.348007      -41.590660
 H         -47.453457     -127.758148      -41.230850
 H         -50.061584     -127.130676      -40.161221
 C         -46.642014     -127.093636      -40.982315
 C         -45.524445     -127.517082      -40.078350
 C         -46.818874     -125.574203      -41.231522
 C         -44.183491     -126.960381      -40.693592
 C         -45.503857     -125.109207      -41.852589
 C         -44.249062     -125.446404      -41.068665
 H         -45.342049     -128.631790      -39.930210
 H         -45.672329     -127.173515      -39.011333
 H         -47.604435     -125.427582      -42.136528
 H         -47.058559     -125.162888      -40.210667
 H         -44.005722     -127.512077      -41.627857
 H         -43.428379     -127.297485      -39.960449
 H         -45.548573     -123.998177      -41.929855
 H         -45.395416     -125.549019      -42.968510
 H         -43.397713     -125.119850      -41.589645
 H         -44.291351     -124.913742      -40.117516
