20
 generated by VMD
 C         -69.443100     -180.938721      -62.246815
 N         -70.206642     -180.062546      -62.307446
 H         -66.974251     -181.563309      -60.617107
 H         -68.738068     -181.791580      -62.210770
 C         -66.452377     -180.549438      -60.553211
 C         -64.982391     -180.395859      -60.528858
 C         -67.193169     -179.275162      -59.977310
 C         -64.389900     -179.174316      -61.123005
 C         -66.682198     -177.997070      -60.567474
 C         -65.216331     -177.921783      -60.704075
 H         -64.508156     -181.289871      -60.890179
 H         -64.647377     -180.450470      -59.551353
 H         -68.339462     -179.286240      -60.236176
 H         -67.093880     -179.348328      -58.899502
 H         -64.472076     -179.303528      -62.187500
 H         -63.398247     -179.006134      -60.717087
 H         -67.169655     -177.123917      -60.098511
 H         -67.148033     -178.033051      -61.592236
 H         -64.936943     -177.233871      -61.452312
 H         -64.742493     -177.742813      -59.830193
