20
 generated by VMD
 C         -12.651672      -30.143440       -7.718363
 N         -13.645222      -29.649763       -7.836109
 H         -11.398987      -30.276411       -4.892322
 H         -10.309011      -30.563997       -3.531374
 C         -10.784024      -31.022907       -4.430411
 C          -9.718641      -31.464455       -5.463259
 C         -11.587914      -32.188187       -4.016921
 C          -8.882428      -32.652596       -4.885009
 C         -10.828085      -33.318302       -3.318782
 C          -9.763987      -33.768475       -4.282084
 H          -8.928639      -30.640049       -5.642235
 H         -10.148650      -31.676270       -6.434078
 H         -12.312861      -31.847178       -3.271194
 H         -12.189973      -32.560116       -4.842143
 H          -8.175309      -32.323284       -4.159667
 H          -8.226085      -32.989777       -5.669868
 H         -11.484694      -34.120960       -3.099494
 H         -10.550910      -32.904751       -2.299001
 H          -9.093610      -34.453728       -3.821857
 H         -10.168554      -34.400761       -5.084116
