20
 generated by VMD
 C         -41.551704     -119.748413      -34.223930
 N         -41.621544     -120.473412      -35.101471
 H         -43.324097     -118.725235      -36.888115
 H         -41.348244     -118.969315      -33.583080
 C         -43.814312     -118.429276      -37.795635
 C         -43.011185     -118.343658      -39.128929
 C         -45.210594     -117.880318      -37.800697
 C         -43.862835     -118.701950      -40.312683
 C         -46.001400     -118.076851      -39.102436
 C         -45.107296     -117.946564      -40.416813
 H         -42.090050     -118.891884      -38.984924
 H         -42.690247     -117.394844      -39.180515
 H         -45.921227     -118.277954      -36.977280
 H         -45.046597     -116.758202      -37.624332
 H         -44.117062     -119.739540      -40.183163
 H         -43.265675     -118.517563      -41.194183
 H         -46.960541     -117.433357      -39.026154
 H         -46.322655     -119.254738      -39.014042
 H         -45.815601     -118.372749      -41.190018
 H         -44.862606     -116.848618      -40.470711
