20
 generated by VMD
 C         -11.753885      -26.557549       -0.415218
 N         -12.695160      -26.332472       -0.988980
 H         -10.220094      -26.389364       -3.685790
 H          -9.304874      -25.521879       -5.007911
 C          -9.213449      -26.095015       -4.059315
 C          -8.389741      -27.403120       -4.218060
 C          -8.597692      -25.093441       -3.034181
 C          -6.912499      -27.081347       -4.557531
 C          -7.150122      -24.826258       -3.486857
 C          -6.331554      -26.128523       -3.445641
 H          -8.870213      -27.858871       -5.061962
 H          -8.427824      -27.972950       -3.324476
 H          -9.027138      -24.110313       -3.085979
 H          -8.593759      -25.561007       -1.992931
 H          -6.699524      -26.699497       -5.568431
 H          -6.323229      -28.007025       -4.402300
 H          -6.659331      -24.114725       -2.817858
 H          -7.206987      -24.266499       -4.425558
 H          -5.285353      -25.982775       -3.712399
 H          -6.277778      -26.670763       -2.505847
