20
 generated by VMD
 C         -14.761175      -45.479641       -6.542918
 N         -14.537610      -46.408768       -7.099014
 H         -15.425194      -44.102432       -9.090988
 H         -14.526722      -44.233810      -10.669300
 C         -15.501871      -44.284260      -10.143578
 C         -16.407230      -43.268524      -10.671232
 C         -16.008976      -45.751259      -10.307199
 C         -16.739435      -43.711559      -12.105546
 C         -16.238276      -46.164341      -11.752886
 C         -17.205402      -45.182499      -12.357649
 H         -15.945661      -42.285557      -10.756158
 H         -17.340815      -43.254646      -10.076631
 H         -15.311309      -46.460659       -9.928498
 H         -16.939440      -45.801971       -9.737773
 H         -15.824970      -43.570549      -12.688869
 H         -17.510479      -43.013504      -12.468058
 H         -16.621397      -47.136082      -11.771410
 H         -15.275603      -46.238018      -12.269112
 H         -17.338467      -45.353523      -13.410477
 H         -18.236309      -45.413219      -11.988550
