20
 generated by VMD
 C         -61.079094     -155.569992      -54.900848
 N         -60.971058     -156.142914      -53.867771
 H         -59.085052     -155.163315      -51.763485
 H         -61.377792     -155.202164      -55.862789
 C         -58.038521     -155.292084      -51.527630
 C         -57.469666     -154.530029      -50.407845
 C         -57.152760     -155.813873      -52.627701
 C         -56.270321     -155.152832      -49.732193
 C         -55.936062     -156.478836      -51.841251
 C         -55.237507     -155.604416      -50.746998
 H         -58.134460     -154.416901      -49.621883
 H         -57.351852     -153.549759      -50.767139
 H         -57.446232     -156.721100      -53.163490
 H         -56.916214     -154.997498      -53.375202
 H         -56.540810     -156.020645      -49.069366
 H         -55.881664     -154.417389      -48.957012
 H         -55.096378     -156.772385      -52.464916
 H         -56.271690     -157.456116      -51.470192
 H         -54.428440     -156.139389      -50.301991
 H         -54.844608     -154.660812      -51.329620
