20
 generated by VMD
 C          -2.244693       -8.637211       -0.889887
 N          -1.690592       -8.234853        0.031287
 H          -2.936342       -9.543782        2.919452
 H          -1.834600      -10.741100        3.275803
 C          -2.911728      -10.573428        3.230251
 C          -3.531265      -11.483295        2.138191
 C          -3.570006      -10.842837        4.566490
 C          -3.356476      -12.942087        2.512868
 C          -3.525482      -12.318097        5.035834
 C          -3.928179      -13.219397        3.920979
 H          -3.189095      -11.328670        1.134838
 H          -4.604743      -11.242455        2.089008
 H          -3.207166      -10.103063        5.285457
 H          -4.613365      -10.712381        4.340220
 H          -2.313069      -13.285378        2.512060
 H          -3.914787      -13.597821        1.860102
 H          -4.291583      -12.357814        5.846984
 H          -2.504839      -12.519469        5.462289
 H          -3.624899      -14.238080        4.233325
 H          -5.024593      -13.218644        3.771879
