20
 generated by VMD
 C         -78.061981     -204.150162      -69.866745
 N         -79.107689     -203.715134      -69.994377
 H         -75.471931     -202.296921      -67.547401
 H         -77.093468     -204.492310      -69.910622
 C         -75.398438     -202.481247      -68.553558
 C         -75.859146     -201.482315      -69.518326
 C         -74.396194     -203.405197      -69.082916
 C         -74.888367     -201.401001      -70.736481
 C         -73.040039     -202.598602      -69.358948
 C         -73.493713     -201.295029      -70.282677
 H         -75.779701     -200.495483      -68.974777
 H         -76.845047     -201.450165      -69.916298
 H         -74.198334     -204.173508      -68.345306
 H         -74.832603     -203.816727      -69.923973
 H         -75.200012     -200.468948      -71.246925
 H         -74.979073     -202.236069      -71.408714
 H         -72.269302     -203.078781      -69.991791
 H         -72.607773     -202.266586      -68.376640
 H         -73.250732     -200.273712      -69.697693
 H         -72.888428     -201.343475      -71.237564
