20
 generated by VMD
 C         -47.614231     -136.654007      -45.875175
 N         -46.948368     -136.090561      -46.712627
 H         -50.937023     -135.564133      -45.799786
 H         -48.508652     -137.173813      -45.424698
 C         -51.453403     -136.389069      -45.276932
 C         -52.071529     -137.489075      -46.124290
 C         -51.934307     -136.335144      -43.844193
 C         -52.017643     -138.867477      -45.444775
 C         -51.808632     -137.686279      -43.182903
 C         -52.530952     -138.772278      -43.985493
 H         -51.374298     -137.449417      -47.044865
 H         -53.068485     -137.265640      -46.385193
 H         -51.355904     -135.626770      -43.294426
 H         -52.980717     -135.997284      -43.868961
 H         -51.005703     -139.282425      -45.594654
 H         -52.617107     -139.640533      -45.945164
 H         -52.227772     -137.650101      -42.113777
 H         -50.819607     -138.016525      -42.982533
 H         -52.515953     -139.727173      -43.591587
 H         -53.648270     -138.719391      -44.073765
