20
 generated by VMD
 C         -42.093578     -101.616920      -33.331272
 N         -41.056568     -101.692085      -33.872524
 H         -38.961197     -103.592369      -32.647499
 H         -42.995594     -101.158417      -32.998814
 C         -37.962830     -103.702118      -32.149147
 C         -36.790356     -103.368698      -33.134235
 C         -37.633003     -104.164291      -30.782118
 C         -35.580215     -102.828957      -32.432312
 C         -36.640022     -103.210533      -30.101673
 C         -35.379711     -103.324493      -30.972082
 H         -37.177383     -102.619835      -33.860996
 H         -36.462097     -104.259605      -33.699715
 H         -38.610691     -104.194984      -30.140551
 H         -37.221996     -105.133141      -30.896542
 H         -35.637432     -101.746117      -32.449360
 H         -34.678089     -103.083321      -32.873329
 H         -36.374813     -103.449852      -29.100622
 H         -37.169899     -102.173958      -30.067533
 H         -34.659657     -102.759834      -30.471867
 H         -34.975143     -104.356262      -30.913952
