20
 generated by VMD
 C         -13.281518      -30.976755       -8.278126
 N         -12.897817      -30.068846       -8.758295
 H         -11.484588      -32.425659       -6.613163
 H         -11.905886      -32.154743       -4.916877
 C         -11.361236      -32.834148       -5.625577
 C          -9.904078      -33.085468       -5.298407
 C         -12.165586      -34.102505       -5.741130
 C          -9.775075      -33.940998       -3.986098
 C         -12.082008      -34.966034       -4.450617
 C         -10.577684      -35.234901       -4.002855
 H          -9.413623      -32.147713       -5.190639
 H          -9.375668      -33.647655       -6.139423
 H         -13.213416      -33.892956       -5.854129
 H         -11.854806      -34.690872       -6.586961
 H          -9.973460      -33.253048       -3.160434
 H          -8.748939      -34.231853       -3.873981
 H         -12.558297      -35.943314       -4.607882
 H         -12.671492      -34.462807       -3.710779
 H         -10.572754      -35.565834       -2.942484
 H         -10.153979      -36.005291       -4.647747
