20
 generated by VMD
 C         -78.903748     -207.203094      -75.308197
 N         -79.877678     -207.000153      -75.956261
 H         -77.983398     -209.307648      -73.261963
 H         -78.079941     -207.584778      -74.608215
 C         -77.638130     -209.318375      -72.279808
 C         -76.547455     -208.537827      -71.815361
 C         -78.348389     -210.322037      -71.434380
 C         -76.555595     -208.147461      -70.417908
 C         -78.177673     -210.152267      -69.875992
 C         -76.882545     -209.431335      -69.529930
 H         -76.404739     -207.768845      -72.574356
 H         -75.717079     -209.241989      -71.887779
 H         -79.356377     -210.435867      -71.836502
 H         -77.975067     -211.364075      -71.501968
 H         -77.352440     -207.362869      -70.190422
 H         -75.550179     -207.686722      -70.174370
 H         -78.304024     -211.054123      -69.322983
 H         -79.104843     -209.511932      -69.648232
 H         -76.974236     -209.095688      -68.503357
 H         -76.076401     -210.183029      -69.605125
