20
 generated by VMD
 C         -39.831089     -105.606316      -36.996902
 N         -40.337978     -106.541687      -37.489807
 H         -38.856766     -108.105461      -35.185047
 H         -39.295700     -104.678963      -36.679943
 C         -39.278988     -108.435783      -34.198631
 C         -38.494736     -109.227226      -33.233231
 C         -40.550335     -109.097572      -34.383339
 C         -39.163971     -109.406776      -31.914099
 C         -41.372734     -109.329521      -33.183247
 C         -40.489040     -110.137550      -32.081135
 H         -37.641148     -108.648445      -33.104328
 H         -38.278271     -110.197670      -33.662830
 H         -41.033367     -108.447266      -35.168194
 H         -40.364014     -109.938667      -34.987659
 H         -39.150997     -108.394112      -31.439663
 H         -38.587139     -110.082077      -31.226353
 H         -42.365471     -109.780281      -33.410511
 H         -41.745926     -108.324165      -32.724525
 H         -41.026360     -110.217857      -31.200836
 H         -40.315075     -111.185791      -32.434875
