20
 generated by VMD
 C         -41.008160     -104.300484      -36.289417
 N         -41.904961     -105.015526      -36.385662
 H         -38.197796     -104.471672      -33.813187
 H         -40.032269     -103.909264      -36.297070
 C         -38.347485     -105.341896      -33.097263
 C         -37.082386     -105.726120      -32.207703
 C         -39.390118     -106.453568      -33.338566
 C         -37.343857     -106.678551      -31.124098
 C         -39.454403     -107.521057      -32.254066
 C         -38.058155     -107.872932      -31.663603
 H         -36.706966     -104.765594      -31.827955
 H         -36.265751     -106.174278      -32.881645
 H         -40.300621     -105.957840      -33.491283
 H         -39.254093     -106.952789      -34.364323
 H         -37.937397     -106.458244      -30.287077
 H         -36.444939     -106.960587      -30.620152
 H         -39.928543     -108.444466      -32.549221
 H         -40.056885     -107.033783      -31.421215
 H         -38.154053     -108.766838      -30.930199
 H         -37.391731     -108.207298      -32.400978
