20
 generated by VMD
 C         -31.710543      -75.861092      -23.983204
 N         -31.141676      -76.297905      -24.917200
 H         -29.708883      -78.196465      -22.484947
 H         -32.504341      -75.576111      -23.453175
 C         -28.653173      -78.118942      -22.165297
 C         -27.619720      -78.248634      -23.201895
 C         -28.203182      -78.196877      -20.700153
 C         -26.229658      -77.645432      -22.895760
 C         -26.740953      -77.601807      -20.413736
 C         -25.754681      -78.068855      -21.522682
 H         -28.032427      -78.039383      -24.234671
 H         -27.536171      -79.320572      -23.332472
 H         -28.926283      -77.765701      -19.946930
 H         -28.155476      -79.233398      -20.432171
 H         -26.420839      -76.549934      -22.929022
 H         -25.452770      -77.727280      -23.695961
 H         -26.315943      -77.875534      -19.535437
 H         -26.900003      -76.577621      -20.445850
 H         -24.791580      -77.471123      -21.340609
 H         -25.661287      -79.145187      -21.540537
