20
 generated by VMD
 C         -30.146839      -79.408257      -25.906384
 N         -30.978157      -78.590080      -26.118282
 H         -28.428091      -82.752251      -25.667116
 H         -29.429131      -80.185425      -25.572819
 C         -28.925674      -82.557251      -24.702900
 C         -28.168682      -81.839676      -23.573946
 C         -30.036636      -83.636856      -24.212261
 C         -29.058592      -81.183388      -22.609503
 C         -30.842384      -83.081177      -23.078293
 C         -30.065786      -82.311790      -22.069033
 H         -27.440680      -81.170105      -24.036884
 H         -27.501143      -82.590355      -22.961845
 H         -30.735071      -83.869286      -24.966732
 H         -29.593861      -84.579185      -23.902161
 H         -29.706779      -80.430031      -23.237518
 H         -28.616545      -80.677422      -21.731987
 H         -31.213627      -83.873055      -22.541025
 H         -31.699444      -82.468819      -23.417736
 H         -30.769512      -81.866455      -21.453342
 H         -29.397217      -82.937981      -21.561012
