20
 generated by VMD
 C         -78.651993     -210.027725      -76.561813
 N         -77.650223     -210.272385      -77.051254
 H         -79.551216     -211.800461      -74.392937
 H         -79.673340     -209.867661      -76.078773
 C         -79.540718     -212.291199      -73.463280
 C         -78.188164     -212.385239      -72.802078
 C         -80.705933     -213.125916      -73.094688
 C         -78.381546     -212.748718      -71.379829
 C         -80.843063     -213.445770      -71.641479
 C         -79.390686     -213.811447      -71.176163
 H         -77.743057     -211.413300      -72.891441
 H         -77.584381     -213.108368      -73.332451
 H         -81.622581     -212.604645      -73.476273
 H         -80.651382     -213.966858      -73.681648
 H         -78.682938     -211.835480      -70.844147
 H         -77.511436     -213.269791      -70.901840
 H         -81.528191     -214.292557      -71.257156
 H         -80.903648     -212.517303      -71.103340
 H         -79.450920     -213.828766      -70.075905
 H         -78.884399     -214.727524      -71.710754
