20
 generated by VMD
 C         -60.799889     -153.307205      -52.345703
 N         -60.996792     -153.435577      -51.245529
 H         -57.450142     -154.050446      -51.156807
 H         -60.637157     -153.050461      -53.357109
 C         -56.706917     -153.348328      -50.778576
 C         -55.828876     -153.751053      -49.598320
 C         -56.383034     -152.134232      -51.565842
 C         -54.351654     -153.376495      -49.821568
 C         -54.910717     -151.868256      -51.721176
 C         -54.156643     -151.977478      -50.399052
 H         -55.808609     -154.854630      -49.462170
 H         -56.138329     -153.157501      -48.735710
 H         -56.912148     -151.950699      -52.484615
 H         -56.736504     -151.295746      -50.916534
 H         -53.767765     -154.063492      -50.537159
 H         -53.841602     -153.561203      -48.873035
 H         -54.800461     -150.896698      -52.065750
 H         -54.427658     -152.535309      -52.370323
 H         -53.165436     -151.765564      -50.538025
 H         -54.362930     -151.310745      -49.525192
