20
 generated by VMD
 C          -1.821579      -16.358385        2.212573
 N          -1.912449      -15.349795        2.693233
 H          -4.208204      -16.010990        0.134055
 H          -4.504123      -17.045769       -1.138106
 C          -5.003432      -16.624535       -0.301376
 C          -6.213047      -15.797927       -0.732115
 C          -5.322287      -17.763950        0.728145
 C          -7.427192      -16.672258       -1.075786
 C          -6.503454      -18.557989        0.275392
 C          -7.708073      -17.655949        0.041185
 H          -6.022336      -15.236245       -1.617207
 H          -6.445222      -15.086310        0.098012
 H          -4.416055      -18.473057        0.749449
 H          -5.401252      -17.348368        1.787625
 H          -7.191043      -17.171482       -2.016750
 H          -8.285594      -15.955245       -1.195017
 H          -6.779599      -19.342850        0.973330
 H          -6.366102      -19.032448       -0.731154
 H          -8.566518      -18.294859       -0.199990
 H          -7.906250      -17.237473        1.016462
