20
 generated by VMD
 C         -50.052666     -144.345398      -44.353115
 N         -49.277077     -143.781281      -45.070354
 H         -52.470749     -142.383499      -45.581203
 H         -50.718452     -144.691940      -43.514832
 C         -52.911011     -142.040680      -46.508129
 C         -52.268242     -141.970459      -47.885262
 C         -54.301315     -141.503113      -46.456135
 C         -53.314472     -142.440536      -48.968105
 C         -55.237503     -141.938049      -47.578846
 C         -54.639843     -141.813965      -48.951122
 H         -51.508827     -142.655670      -47.901062
 H         -51.985104     -140.945496      -48.054867
 H         -54.789352     -141.853592      -45.583515
 H         -54.236614     -140.453918      -46.601192
 H         -53.361942     -143.561356      -48.895798
 H         -52.869579     -142.237503      -49.976276
 H         -56.140938     -141.415192      -47.407566
 H         -55.599567     -142.983505      -47.570415
 H         -55.285599     -142.260910      -49.694519
 H         -54.689011     -140.770966      -49.160492
