20
 generated by VMD
 C          -6.804096      -23.310368        3.200087
 N          -6.764772      -22.676464        2.268273
 H          -7.722328      -22.546257       -0.524732
 H          -8.932106      -22.268923       -1.732473
 C          -7.834131      -22.162405       -1.504174
 C          -7.032102      -22.924908       -2.518793
 C          -7.587637      -20.668001       -1.508132
 C          -7.062608      -22.231041       -3.909863
 C          -7.600428      -19.983723       -2.872851
 C          -6.609457      -20.706360       -3.851634
 H          -7.441283      -23.969040       -2.542209
 H          -6.018862      -22.984913       -2.143853
 H          -8.265081      -20.178194       -0.843021
 H          -6.558997      -20.551994       -1.135345
 H          -8.101937      -22.189224       -4.300513
 H          -6.406836      -22.771900       -4.580513
 H          -7.253058      -18.960722       -2.815572
 H          -8.632434      -19.979656       -3.256404
 H          -6.723777      -20.309637       -4.899239
 H          -5.540026      -20.544027       -3.526046
