20
 generated by VMD
 C         -12.524072      -28.119932       -5.482840
 N         -13.166476      -28.306339       -6.374539
 H         -11.990394      -31.589745       -4.510375
 H         -11.307788      -30.138369       -5.151310
 C         -11.020830      -31.065605       -4.559299
 C          -9.905063      -31.915028       -5.290129
 C         -10.635329      -30.737608       -3.166908
 C          -8.500777      -31.269543       -5.219420
 C          -9.375760      -29.909218       -3.199120
 C          -8.180945      -30.675598       -3.825150
 H         -10.239953      -32.117851       -6.358756
 H         -10.035319      -32.868221       -4.853077
 H         -11.460757      -30.218424       -2.733937
 H         -10.498452      -31.602215       -2.531110
 H          -8.392855      -30.455465       -5.937962
 H          -7.783189      -32.018333       -5.575664
 H          -9.191277      -29.636484       -2.187002
 H          -9.479412      -28.956602       -3.785176
 H          -7.353420      -29.923672       -3.847660
 H          -7.707867      -31.398247       -3.077437
