20
 generated by VMD
 C         -13.011007      -31.159224       -8.219404
 N         -12.567241      -30.149902       -8.337055
 H         -11.461262      -32.918449       -7.173874
 H         -12.073440      -32.424076       -5.617591
 C         -11.558881      -33.269543       -6.092638
 C         -10.157716      -33.203247       -5.532892
 C         -12.214285      -34.646301       -5.896504
 C         -10.061079      -33.762180       -4.144400
 C         -12.200802      -35.209969       -4.475029
 C         -10.765078      -35.172634       -3.917747
 H          -9.771230      -32.158497       -5.595998
 H          -9.471662      -33.739559       -6.236421
 H         -13.225484      -34.574257       -6.302076
 H         -11.727315      -35.285950       -6.614799
 H         -10.528821      -33.046852       -3.480745
 H          -9.070504      -33.825264       -3.715051
 H         -12.581034      -36.276566       -4.393126
 H         -12.881742      -34.663708       -3.917907
 H         -10.677320      -35.460217       -2.847288
 H         -10.164541      -35.907333       -4.427268
