20
 generated by VMD
 C         -39.353966      -99.064514      -28.087473
 N         -38.685722      -99.939529      -27.749710
 H         -37.535278      -98.237892      -30.540043
 H         -39.838657      -98.087967      -28.417374
 C         -36.396862      -98.078606      -30.686188
 C         -35.766853      -98.281990      -32.054844
 C         -35.527351      -97.597168      -29.599932
 C         -34.430141      -97.542610      -32.321617
 C         -34.423271      -96.630875      -30.086693
 C         -33.603596      -97.402733      -31.016136
 H         -36.423729      -98.233414      -32.910828
 H         -35.296917      -99.314888      -31.954687
 H         -36.032074      -96.979965      -28.879971
 H         -35.153400      -98.547173      -29.078730
 H         -34.726696      -96.531036      -32.778961
 H         -33.742043      -97.932343      -33.019711
 H         -33.891357      -96.262360      -29.233929
 H         -34.972778      -95.723572      -30.480221
 H         -32.644917      -96.850426      -31.197828
 H         -33.309341      -98.317467      -30.556562
