20
 generated by VMD
 C         -60.251987     -170.656464      -55.182617
 N         -59.223190     -171.115387      -55.277344
 H         -63.343472     -170.740540      -56.807102
 H         -61.222691     -170.166351      -55.176662
 C         -63.409344     -169.692886      -56.930641
 C         -62.368595     -168.804276      -57.585457
 C         -64.600189     -168.885818      -56.385250
 C         -62.986889     -167.854156      -58.725391
 C         -65.182030     -167.972870      -57.520802
 C         -64.221336     -167.151062      -58.338600
 H         -61.514668     -169.353714      -58.075401
 H         -61.895195     -168.249832      -56.830700
 H         -65.533356     -169.480743      -55.951019
 H         -64.337402     -168.182465      -55.567131
 H         -63.254200     -168.567871      -59.493137
 H         -62.084274     -167.290009      -59.041306
 H         -65.988060     -167.330780      -57.205212
 H         -65.715141     -168.697296      -58.160622
 H         -64.657768     -166.743729      -59.212635
 H         -64.074211     -166.295761      -57.674320
