20
 generated by VMD
 C         -30.790094      -78.023621      -25.751118
 N         -31.816807      -77.679169      -26.105997
 H         -29.268435      -77.907135      -22.871813
 H         -29.847206      -78.248001      -25.431490
 C         -28.902443      -78.932800      -22.961014
 C         -27.502733      -79.274185      -23.332502
 C         -29.714941      -80.193230      -22.659351
 C         -26.830145      -79.885742      -22.120213
 C         -29.028353      -80.845886      -21.435581
 C         -27.497194      -81.037933      -21.521357
 H         -27.012596      -78.344635      -23.828726
 H         -27.351374      -79.996407      -24.225641
 H         -30.750101      -79.937317      -22.409487
 H         -29.787121      -80.959564      -23.461714
 H         -26.621548      -79.056274      -21.445072
 H         -25.839222      -80.355286      -22.493982
 H         -29.440151      -81.907639      -21.473869
 H         -29.303770      -80.296623      -20.535456
 H         -27.145353      -81.165009      -20.544882
 H         -27.271923      -81.910049      -22.099129
