20
 generated by VMD
 C         -50.846569     -128.179428      -41.775967
 N         -51.959549     -128.539032      -41.873116
 H         -47.636723     -128.046082      -40.584167
 H         -49.769165     -128.100952      -41.912407
 C         -46.776741     -127.498482      -40.852303
 C         -45.521030     -127.906113      -40.111172
 C         -46.890266     -125.976730      -41.213310
 C         -44.301861     -127.486099      -40.852802
 C         -45.553822     -125.556969      -41.888786
 C         -44.375225     -126.025978      -41.077145
 H         -45.481422     -128.977875      -39.877590
 H         -45.613892     -127.338890      -39.174721
 H         -47.734673     -125.885811      -41.838352
 H         -46.879284     -125.395859      -40.161659
 H         -44.288994     -128.001816      -41.844303
 H         -43.500275     -127.668098      -40.146271
 H         -45.510796     -124.422165      -42.098351
 H         -45.585308     -126.042068      -42.911320
 H         -43.533047     -125.660408      -41.681427
 H         -44.280998     -125.376747      -40.246204
