20
 generated by VMD
 C         -22.874216      -54.881325      -16.470282
 N         -23.739635      -55.264961      -15.877826
 H         -19.156830      -54.898399      -15.394099
 H         -22.333845      -54.237919      -17.189383
 C         -18.969296      -55.766998      -14.783937
 C         -19.444979      -55.597797      -13.301678
 C         -18.580633      -57.075169      -15.314333
 C         -19.899225      -56.893036      -12.591201
 C         -19.479996      -58.195320      -14.742634
 C         -19.397926      -58.194038      -13.232756
 H         -20.310114      -54.914120      -13.285131
 H         -18.792852      -54.989151      -12.708937
 H         -18.566753      -57.084648      -16.481503
 H         -17.529364      -57.283737      -15.133893
 H         -21.016129      -56.907734      -12.553220
 H         -19.568075      -56.832130      -11.569882
 H         -19.002081      -59.170811      -15.073390
 H         -20.554810      -58.126472      -14.990593
 H         -20.100586      -58.995106      -12.879676
 H         -18.424122      -58.500919      -12.911466
