20
 generated by VMD
 C         -56.228878     -149.395264      -45.964428
 N         -56.138973     -150.416611      -45.412128
 H         -53.916939     -148.140656      -47.819496
 H         -56.124954     -148.425644      -46.501068
 C         -53.914536     -147.374695      -48.625385
 C         -53.136913     -147.597183      -49.903885
 C         -54.720734     -146.170761      -48.594795
 C         -53.600376     -147.028030      -51.163857
 C         -55.248608     -145.660965      -49.888184
 C         -54.263866     -145.722473      -50.995399
 H         -52.929962     -148.591553      -49.986084
 H         -52.059319     -147.228424      -49.756493
 H         -55.474560     -146.212433      -47.901237
 H         -54.055748     -145.464294      -48.105129
 H         -54.277164     -147.585663      -51.789898
 H         -52.803986     -146.772049      -51.826981
 H         -55.695087     -144.610718      -49.705063
 H         -56.023949     -146.402435      -50.055328
 H         -54.803894     -145.533066      -51.965710
 H         -53.511932     -144.926819      -50.923672
