20
 generated by VMD
 C         -79.544899     -206.689514      -74.973061
 N         -80.048798     -206.149261      -74.109482
 H         -78.560570     -206.675095      -71.302116
 H         -79.134361     -207.159409      -75.914528
 C         -77.546593     -206.807587      -70.902840
 C         -76.354599     -206.028854      -71.405167
 C         -77.271446     -208.172379      -70.259605
 C         -75.325531     -205.920670      -70.280815
 C         -76.252960     -208.002289      -69.128471
 C         -75.016815     -207.289383      -69.710899
 H         -76.551628     -205.020142      -71.775070
 H         -75.960640     -206.591263      -72.334824
 H         -78.124969     -208.666412      -69.770035
 H         -76.897980     -208.953598      -70.962334
 H         -75.505470     -205.247711      -69.460129
 H         -74.442108     -205.600418      -70.744904
 H         -76.027084     -208.956314      -68.728592
 H         -76.738518     -207.309677      -68.373817
 H         -74.350029     -207.071579      -68.809975
 H         -74.594742     -208.014130      -70.326065
