20
 generated by VMD
 C         -68.407631     -194.041412      -66.005058
 N         -67.870537     -194.568741      -65.095314
 H         -70.726990     -191.636612      -67.418777
 H         -68.556313     -193.510056      -66.889267
 C         -71.447327     -191.569260      -66.611206
 C         -72.318779     -190.361130      -66.503273
 C         -71.715622     -192.870407      -65.810593
 C         -73.820930     -190.626953      -66.180008
 C         -72.958611     -192.591843      -64.818237
 C         -74.158875     -191.928619      -65.512596
 H         -72.238693     -189.858185      -67.442444
 H         -71.804741     -189.756393      -65.778038
 H         -72.135345     -193.665802      -66.462288
 H         -70.891220     -193.096085      -65.130043
 H         -74.387093     -190.611969      -67.125000
 H         -74.097626     -189.857590      -65.486267
 H         -72.721596     -191.865036      -64.044518
 H         -73.235970     -193.499802      -64.327217
 H         -74.456085     -192.583893      -66.257881
 H         -75.129120     -191.818192      -64.795258
