20
 generated by VMD
 C         -21.043495      -52.263500       -9.597680
 N         -21.332500      -52.426418      -10.752241
 H         -19.169590      -49.929588      -11.566315
 H         -20.561214      -52.034111       -8.691980
 C         -18.309757      -50.073765      -12.276979
 C         -17.790789      -51.437969      -12.708800
 C         -17.413006      -48.889988      -12.236838
 C         -16.838585      -51.440044      -13.942539
 C         -16.484951      -48.919266      -13.453946
 C         -15.855904      -50.312366      -13.646066
 H         -18.643414      -52.097610      -12.855483
 H         -17.150179      -51.766647      -11.829535
 H         -18.029800      -47.956947      -12.206200
 H         -16.848690      -48.926498      -11.316879
 H         -17.409603      -51.296814      -14.858670
 H         -16.381441      -52.431061      -14.086961
 H         -15.550985      -48.226398      -13.270497
 H         -16.972544      -48.470528      -14.296652
 H         -15.120030      -50.237785      -14.430890
 H         -15.341362      -50.579762      -12.741909
