20
 generated by VMD
 C          -1.292634      -12.080719        1.485749
 N          -0.951155      -12.539399        0.493580
 H          -3.965266      -12.881696        0.842611
 H          -5.657418      -13.182263        0.796035
 C          -4.710245      -13.694488        1.027706
 C          -4.928467      -13.867352        2.552464
 C          -4.644752      -14.968707        0.232637
 C          -6.019658      -14.927602        2.830741
 C          -5.862507      -15.889470        0.576717
 C          -5.819558      -16.215965        2.083719
 H          -5.219106      -12.914867        2.950524
 H          -3.954636      -14.077589        3.066800
 H          -4.588930      -14.863762       -0.924142
 H          -3.700602      -15.563848        0.546295
 H          -7.015486      -14.512854        2.635546
 H          -6.090861      -15.098864        3.886201
 H          -5.742988      -16.762777       -0.011908
 H          -6.784675      -15.391002        0.287745
 H          -6.715226      -16.882368        2.221821
 H          -4.911686      -16.832630        2.338283
