20
 generated by VMD
 C         -63.039131     -172.394226      -55.145546
 N         -62.547703     -173.486664      -55.135269
 H         -61.700932     -171.523788      -58.484409
 H         -63.591122     -171.437271      -55.199017
 C         -62.528316     -170.846756      -58.513550
 C         -62.325371     -169.357254      -58.095913
 C         -63.772182     -171.461456      -59.142670
 C         -63.668892     -168.554810      -57.986423
 C         -64.925865     -170.516968      -59.170628
 C         -64.825180     -169.517807      -58.082031
 H         -61.690201     -168.814758      -58.753925
 H         -61.747467     -169.398666      -57.065998
 H         -63.857761     -171.834534      -60.170219
 H         -64.038452     -172.330505      -58.580215
 H         -63.722298     -167.895782      -58.765888
 H         -63.675220     -168.039047      -57.038097
 H         -65.803146     -171.137589      -59.019665
 H         -64.921623     -170.111298      -60.187302
 H         -65.805298     -168.880447      -58.113495
 H         -64.834167     -170.099930      -57.135349
