20
 generated by VMD
 C         -68.627960     -193.674408      -64.711143
 N         -68.417435     -194.466171      -65.488976
 H         -70.951653     -193.222870      -67.827324
 H         -68.582886     -192.857681      -63.941525
 C         -71.725281     -192.892593      -67.115265
 C         -71.590286     -191.649307      -66.384483
 C         -73.091278     -193.621719      -67.207359
 C         -72.966148     -190.985947      -66.004700
 C         -74.004326     -193.409714      -65.980453
 C         -73.873978     -192.053497      -65.238548
 H         -70.983360     -190.952499      -66.901115
 H         -71.161949     -191.703598      -65.414299
 H         -73.555038     -193.436584      -68.187500
 H         -72.883232     -194.639130      -67.298828
 H         -73.498672     -190.768143      -66.907448
 H         -72.876991     -190.148483      -65.333435
 H         -73.964157     -194.290482      -65.338661
 H         -75.043739     -193.239044      -66.378906
 H         -74.868996     -191.464828      -65.059547
 H         -73.427628     -192.250000      -64.314476
