20
 generated by VMD
 C         -18.035662      -48.554733       -7.299017
 N         -17.942120      -48.269157       -6.225866
 H         -16.316517      -48.419445      -10.384302
 H         -15.856242      -48.894409      -11.997892
 C         -16.256952      -48.094269      -11.413101
 C         -15.341620      -46.872250      -11.499364
 C         -17.701796      -47.843357      -11.944752
 C         -15.270885      -46.525524      -12.996263
 C         -17.788748      -47.279137      -13.352150
 C         -16.699636      -46.230003      -13.502590
 H         -14.316501      -47.172180      -11.127189
 H         -15.807742      -45.975636      -11.053272
 H         -18.234011      -48.796097      -11.895970
 H         -18.223093      -47.112568      -11.281240
 H         -14.887487      -47.382633      -13.562497
 H         -14.556316      -45.730282      -13.174098
 H         -18.733313      -46.839573      -13.656718
 H         -17.658098      -48.082245      -14.054441
 H         -16.648438      -45.998760      -14.555313
 H         -17.071968      -45.298374      -13.086507
