20
 generated by VMD
 C         -60.706333     -153.592819      -51.551609
 N         -61.442055     -154.429932      -52.037453
 H         -57.562565     -153.925156      -52.245907
 H         -59.927593     -152.865265      -51.288750
 C         -56.789497     -153.464478      -51.644794
 C         -56.629711     -153.802963      -50.172180
 C         -55.889133     -152.394501      -52.195866
 C         -55.264389     -154.088501      -49.611767
 C         -54.461323     -152.492813      -51.649128
 C         -54.419476     -152.856293      -50.150875
 H         -57.227093     -154.733109      -49.986923
 H         -57.158993     -152.956924      -49.565624
 H         -55.760410     -152.613937      -53.301258
 H         -56.295143     -151.399200      -52.038883
 H         -54.918549     -155.010223      -50.104870
 H         -55.423328     -154.131577      -48.494770
 H         -53.922031     -151.587204      -51.901051
 H         -53.678627     -153.255096      -51.955769
 H         -53.328484     -153.012054      -50.012772
 H         -54.774326     -151.967239      -49.509430
