20
 generated by VMD
 C         -60.699692     -153.356537      -52.037228
 N         -61.349709     -154.200363      -51.586449
 H         -57.676544     -153.905853      -51.797012
 H         -60.018635     -152.628494      -52.490925
 C         -56.902218     -153.343307      -51.295994
 C         -56.394428     -153.920547      -50.000202
 C         -56.092888     -152.209137      -51.909420
 C         -54.851913     -153.787811      -49.630783
 C         -54.595718     -152.324265      -51.675781
 C         -54.148205     -152.450226      -50.278954
 H         -56.744911     -155.042191      -49.914303
 H         -56.867149     -153.376205      -49.145191
 H         -56.258373     -152.156204      -52.999401
 H         -56.428535     -151.261383      -51.392082
 H         -54.303062     -154.742218      -49.953888
 H         -54.778019     -153.512314      -48.597252
 H         -53.981567     -151.344864      -51.985413
 H         -54.275097     -153.127579      -52.336449
 H         -53.097397     -152.562622      -50.088524
 H         -54.538059     -151.451431      -49.790886
