20
 generated by VMD
 C         -70.154221     -182.838120      -65.951843
 N         -71.135651     -183.431152      -65.627136
 H         -67.705872     -182.588303      -63.116585
 H         -69.271278     -182.286530      -66.222755
 C         -67.445488     -182.265488      -62.085373
 C         -67.687866     -183.331009      -61.039902
 C         -67.002914     -180.850647      -61.868595
 C         -66.649254     -183.147034      -59.856998
 C         -66.184898     -180.621902      -60.576775
 C         -66.569771     -181.607071      -59.421154
 H         -67.448372     -184.287689      -61.509018
 H         -68.652412     -183.160355      -60.577751
 H         -66.220200     -180.659149      -62.650982
 H         -67.848381     -180.284653      -62.044708
 H         -65.672234     -183.590958      -60.296715
 H         -66.927238     -183.948227      -59.002644
 H         -66.267143     -179.588516      -60.182568
 H         -65.114738     -180.742538      -60.814674
 H         -65.882843     -181.554932      -58.515827
 H         -67.558861     -181.473007      -59.060143
