20
 generated by VMD
 C         -34.904682      -97.213997      -26.434612
 N         -34.482510      -97.630363      -25.458706
 H         -35.538486      -94.054192      -27.563152
 H         -35.238308      -96.922676      -27.505123
 C         -35.245907      -94.017899      -28.614515
 C         -35.965717      -94.932076      -29.557442
 C         -33.811356      -93.680267      -28.993795
 C         -35.865749      -94.433594      -31.055210
 C         -33.795681      -93.184227      -30.413879
 C         -34.370853      -94.238556      -31.437782
 H         -37.076206      -94.984932      -29.391924
 H         -35.602367      -95.974350      -29.520182
 H         -33.432419      -93.052910      -28.173141
 H         -33.243908      -94.662987      -28.902380
 H         -36.607758      -93.581810      -31.187372
 H         -36.252487      -95.256790      -31.650288
 H         -32.757351      -92.865524      -30.591236
 H         -34.333134      -92.276115      -30.747105
 H         -34.260517      -93.976433      -32.368168
 H         -33.985027      -95.288155      -31.245359
