20
 generated by VMD
 C         -66.786270     -189.974747      -66.887543
 N         -67.532730     -190.139572      -65.976746
 H         -70.604843     -190.867569      -66.461418
 H         -66.289871     -189.988480      -67.819595
 C         -71.123642     -190.417297      -65.559219
 C         -72.415176     -191.126205      -65.160103
 C         -70.488037     -189.449905      -64.577759
 C         -73.237022     -190.295013      -64.093056
 C         -71.479218     -188.482895      -64.027443
 C         -72.438805     -189.344864      -63.119228
 H         -72.003014     -192.030182      -64.688385
 H         -73.068031     -191.290924      -66.013725
 H         -70.076805     -190.115982      -63.778992
 H         -69.682175     -188.980331      -65.018463
 H         -73.875389     -191.001236      -63.470093
 H         -73.932747     -189.643616      -64.627945
 H         -72.014618     -187.983734      -64.793427
 H         -70.989914     -187.617981      -63.518276
 H         -71.785789     -189.793365      -62.357792
 H         -73.176140     -188.810150      -62.661228
