20
 generated by VMD
 C         -60.764683     -154.220825      -51.276287
 N         -61.266922     -154.260437      -52.265205
 H         -57.560562     -153.752670      -52.854519
 H         -60.416115     -154.222580      -50.255630
 C         -56.855816     -153.603104      -52.039120
 C         -57.075264     -153.892059      -50.602436
 C         -55.604691     -152.724518      -52.213764
 C         -55.697998     -154.137177      -49.810345
 C         -54.290653     -152.921768      -51.484165
 C         -54.678543     -153.085419      -50.046383
 H         -57.580372     -154.809753      -50.260441
 H         -57.505314     -152.998413      -50.072311
 H         -55.415443     -152.757553      -53.236275
 H         -55.914646     -151.688873      -52.003487
 H         -55.238857     -155.032700      -50.132141
 H         -55.955547     -154.238358      -48.792580
 H         -53.690727     -152.095551      -51.854904
 H         -53.759674     -153.866409      -51.725407
 H         -53.666832     -153.313446      -49.599277
 H         -55.078217     -152.285019      -49.529392
