20
 generated by VMD
 C         -21.786884      -52.410480      -11.369666
 N         -21.602600      -52.925373      -10.324249
 H         -20.052376      -51.393677      -13.897561
 H         -21.510223      -51.688126      -12.404653
 C         -18.938236      -51.300674      -13.736990
 C         -18.068621      -51.903904      -14.764904
 C         -18.459513      -51.140789      -12.345873
 C         -16.578327      -51.914280      -14.446535
 C         -16.911200      -51.114277      -12.112631
 C         -16.194408      -52.130314      -12.961288
 H         -18.184416      -51.509396      -15.754353
 H         -18.235559      -53.014462      -14.791780
 H         -18.981272      -50.250423      -11.959464
 H         -18.815071      -51.947235      -11.727843
 H         -16.049902      -51.015495      -14.723145
 H         -16.134710      -52.649952      -15.114361
 H         -16.650023      -51.275654      -11.099400
 H         -16.463390      -50.082115      -12.339485
 H         -15.149222      -51.895821      -12.797518
 H         -16.329720      -53.127903      -12.542203
