20
 generated by VMD
 C          -1.627918      -13.109120        0.667628
 N          -0.739961      -13.784100        0.572836
 H          -3.876349      -14.330267        1.866384
 H          -4.859352      -14.179235        0.423558
 C          -4.730562      -14.765965        1.342155
 C          -6.054296      -14.711243        2.164497
 C          -4.402834      -16.153570        0.994229
 C          -7.213564      -15.367284        1.351449
 C          -5.501727      -16.881201        0.268245
 C          -6.799879      -16.789165        1.046690
 H          -6.281013      -13.697110        2.419053
 H          -5.943000      -15.186113        3.151125
 H          -3.442697      -16.210823        0.357223
 H          -4.091447      -16.755119        1.934563
 H          -7.497150      -14.853529        0.403952
 H          -8.138536      -15.384285        1.968253
 H          -5.204183      -17.974991        0.136463
 H          -5.668493      -16.538773       -0.758430
 H          -7.580781      -17.408361        0.615779
 H          -6.592423      -17.309307        1.988006
