20
 generated by VMD
 C         -11.102969      -32.809841       -8.739106
 N         -11.882756      -33.057266       -9.531199
 H         -12.223314      -33.791962       -6.617661
 H         -12.552002      -34.048790       -4.910784
 C         -12.403895      -34.598797       -5.837006
 C         -11.141269      -35.471283       -5.663441
 C         -13.589118      -35.359016       -6.350926
 C         -11.484614      -36.858898       -5.046700
 C         -13.847220      -36.672337       -5.664875
 C         -12.678791      -37.585995       -5.715764
 H         -10.350545      -34.949993       -5.102542
 H         -10.839965      -35.606117       -6.737238
 H         -14.485558      -34.731197       -6.307456
 H         -13.374322      -35.423141       -7.421677
 H         -11.797002      -36.690338       -3.988649
 H         -10.611355      -37.500656       -5.172267
 H         -14.783051      -37.172733       -6.119352
 H         -14.044532      -36.428593       -4.635989
 H         -12.888885      -38.565395       -5.354947
 H         -12.335359      -37.671749       -6.774320
