20
 generated by VMD
 C         -60.349957     -170.415543      -55.143723
 N         -59.234058     -170.564911      -55.372345
 H         -63.152393     -170.548813      -56.653896
 H         -61.382393     -170.335983      -54.919140
 C         -63.322510     -169.521729      -56.841003
 C         -62.412983     -168.961151      -57.822056
 C         -64.462425     -168.858429      -56.309425
 C         -63.029877     -167.958740      -58.701721
 C         -65.037003     -167.828140      -57.313450
 C         -63.995167     -166.910126      -58.040581
 H         -61.988525     -169.783752      -58.252586
 H         -61.473366     -168.449814      -57.247257
 H         -65.230972     -169.677368      -56.186661
 H         -64.312057     -168.368347      -55.349503
 H         -63.709385     -168.509750      -59.369102
 H         -62.380646     -167.362106      -59.274456
 H         -65.833382     -167.191681      -56.808712
 H         -65.551476     -168.394989      -58.163235
 H         -64.515953     -166.171127      -58.732235
 H         -63.389778     -166.280914      -57.403019
