20
 generated by VMD
 C         -31.386539      -77.593163      -26.088972
 N         -31.701998      -78.012741      -27.179077
 H         -29.338930      -79.026405      -24.016003
 H         -30.831886      -77.329964      -25.202019
 C         -28.923653      -79.775230      -23.334478
 C         -27.499046      -79.713211      -23.040371
 C         -29.896942      -80.645630      -22.644972
 C         -26.970697      -80.576904      -21.889853
 C         -29.278988      -81.478149      -21.495148
 C         -27.799376      -81.746811      -21.647974
 H         -27.128086      -78.650055      -22.854191
 H         -26.893196      -79.979980      -24.040276
 H         -30.677067      -80.072655      -22.322517
 H         -30.351484      -81.349800      -23.425798
 H         -26.826002      -80.041283      -20.914108
 H         -25.946627      -80.855125      -22.280102
 H         -29.791922      -82.432602      -21.553391
 H         -29.603662      -81.055260      -20.635082
 H         -27.353249      -82.251198      -20.719959
 H         -27.576092      -82.469635      -22.462978
