20
 generated by VMD
 C         -49.363697     -132.533112      -46.883381
 N         -50.235638     -131.901627      -47.141014
 H         -47.453777     -134.462402      -44.019508
 H         -48.450619     -132.896957      -46.399223
 C         -48.406971     -134.568146      -43.523403
 C         -49.087704     -135.857468      -43.903889
 C         -49.284485     -133.398682      -43.069458
 C         -49.948162     -136.371933      -42.674484
 C         -50.117527     -133.914444      -41.884586
 C         -50.824547     -135.208145      -42.176620
 H         -48.345573     -136.575317      -44.147324
 H         -49.714989     -135.701492      -44.856426
 H         -48.754120     -132.453995      -42.890194
 H         -50.103260     -133.142105      -43.860748
 H         -49.155228     -136.625504      -41.894814
 H         -50.525352     -137.257172      -43.068264
 H         -50.929520     -133.178635      -41.768139
 H         -49.612137     -133.940277      -40.967411
 H         -51.291653     -135.432602      -41.265690
 H         -51.793861     -135.145630      -42.771069
