20
 generated by VMD
 C         -70.799507     -181.657104      -64.150963
 N         -70.038521     -182.429138      -63.675278
 H         -68.390244     -181.007355      -61.379761
 H         -71.540237     -180.962997      -64.627029
 C         -67.499352     -180.677704      -60.963974
 C         -66.636909     -181.801910      -60.610962
 C         -67.352760     -179.344376      -60.455219
 C         -65.185066     -181.415390      -60.779980
 C         -65.919037     -178.970993      -60.862270
 C         -64.933861     -180.035217      -60.337265
 H         -66.965004     -182.665695      -61.257030
 H         -66.829971     -182.094360      -59.617050
 H         -68.221199     -178.703476      -60.757904
 H         -67.398567     -179.306122      -59.398811
 H         -64.990112     -181.446594      -61.871220
 H         -64.410851     -182.039734      -60.238209
 H         -65.640144     -178.002258      -60.405354
 H         -65.738876     -178.837372      -61.923893
 H         -63.940712     -179.610794      -60.801365
 H         -64.806274     -180.048843      -59.278019
