20
 generated by VMD
 C         -79.604141     -206.928268      -73.605362
 N         -80.331902     -205.991577      -73.539970
 H         -78.189522     -205.044785      -70.572861
 H         -78.967110     -207.854004      -73.794724
 C         -77.140244     -205.323257      -70.407806
 C         -76.047653     -204.368576      -70.903419
 C         -76.842957     -206.631012      -69.802818
 C         -74.586861     -204.710709      -70.274857
 C         -75.383919     -206.727188      -69.127808
 C         -74.254547     -206.090454      -69.972466
 H         -76.326576     -203.449783      -70.481483
 H         -76.149834     -204.253098      -72.001572
 H         -77.475655     -206.837189      -68.971985
 H         -77.036049     -207.505585      -70.417839
 H         -74.610298     -204.148895      -69.310921
 H         -73.918678     -204.141510      -70.966309
 H         -75.258835     -207.760910      -68.735390
 H         -75.446754     -206.155243      -68.225670
 H         -73.321594     -205.976685      -69.442604
 H         -74.124275     -206.760101      -70.844810
