20
 generated by VMD
 C         -19.728035      -57.570873      -16.911701
 N         -19.237314      -58.075512      -17.817961
 H         -22.644768      -59.679817      -17.099913
 H         -20.469389      -57.081043      -16.134338
 C         -22.687508      -60.513420      -16.508001
 C         -24.001814      -61.286594      -16.408850
 C         -21.530935      -60.875229      -15.632050
 C         -23.672245      -62.699821      -16.208792
 C         -21.472845      -62.280823      -14.967995
 C         -22.854792      -62.988503      -14.910278
 H         -24.701468      -61.064236      -17.255703
 H         -24.561886      -60.920773      -15.595203
 H         -20.642857      -61.023788      -16.266521
 H         -21.268135      -60.087067      -14.921969
 H         -23.154268      -63.186092      -17.075081
 H         -24.639835      -63.288326      -16.234638
 H         -21.071890      -62.156384      -13.919217
 H         -20.845467      -62.829990      -15.673994
 H         -22.744875      -64.144852      -14.849648
 H         -23.393456      -62.630116      -14.015183
