20
 generated by VMD
 C         -76.487015     -203.053497      -66.602890
 N         -77.214439     -203.469025      -65.809128
 H         -75.512604     -200.511520      -68.499565
 H         -75.722656     -202.621811      -67.152031
 C         -74.857201     -199.859116      -69.034538
 C         -74.786491     -198.468811      -68.518364
 C         -73.731651     -200.353058      -69.888519
 C         -73.507828     -197.558609      -68.796921
 C         -73.162178     -199.257828      -70.764839
 C         -72.679695     -197.987335      -70.144707
 H         -74.858673     -198.564377      -67.479195
 H         -75.616714     -197.951248      -68.857697
 H         -73.061661     -200.843079      -69.276695
 H         -73.935486     -201.109879      -70.626991
 H         -72.813210     -197.983932      -68.061440
 H         -73.582207     -196.492325      -68.470100
 H         -74.037727     -199.047333      -71.401154
 H         -72.264664     -199.649261      -71.314583
 H         -71.586143     -197.955032      -69.970520
 H         -72.891815     -197.081070      -70.748375
