20
 generated by VMD
 C         -10.447505      -33.454739       -8.924555
 N         -11.146894      -32.613274       -9.270095
 H         -11.901861      -36.799847       -8.116995
 H         -12.156119      -36.126328       -6.538767
 C         -12.412041      -36.958138       -7.188233
 C         -11.982291      -38.211765       -6.438102
 C         -13.936140      -36.924019       -7.528174
 C         -12.755625      -38.385330       -5.175906
 C         -14.739256      -37.177929       -6.269784
 C         -14.279408      -38.481792       -5.524640
 H         -10.930741      -38.120388       -6.134819
 H         -12.169147      -39.101952       -7.100941
 H         -14.132791      -35.899643       -7.907177
 H         -14.113807      -37.656979       -8.302534
 H         -12.548767      -37.553905       -4.437578
 H         -12.543614      -39.389805       -4.716423
 H         -15.843244      -37.247952       -6.485682
 H         -14.711131      -36.414906       -5.546281
 H         -14.845543      -38.438091       -4.613554
 H         -14.531290      -39.469952       -5.991762
