20
 generated by VMD
 C         -29.054785      -73.781113      -19.434187
 N         -29.956129      -74.503670      -19.447582
 H         -25.322638      -73.159050      -18.795338
 H         -28.386999      -73.062607      -19.586681
 C         -25.548527      -73.096855      -19.846476
 C         -25.271391      -74.376549      -20.738186
 C         -25.768221      -71.741013      -20.449757
 C         -25.799385      -74.225197      -22.185129
 C         -26.228840      -71.776894      -21.828930
 C         -25.559189      -72.758255      -22.768867
 H         -25.713070      -75.268471      -20.199549
 H         -24.117403      -74.593445      -20.776447
 H         -26.579453      -71.182899      -19.896927
 H         -24.875498      -71.198997      -20.164757
 H         -26.858255      -74.503677      -22.206587
 H         -25.359331      -75.034767      -22.761452
 H         -25.966125      -70.861191      -22.241390
 H         -27.251366      -71.914833      -21.972597
 H         -25.942926      -72.529236      -23.813066
 H         -24.434778      -72.600769      -22.783857
