20
 generated by VMD
 C         -28.350485      -86.988251      -27.055067
 N         -27.594090      -87.039879      -26.207365
 H         -31.033920      -88.146149      -25.293413
 H         -29.021019      -87.035744      -27.807699
 C         -32.032990      -88.162086      -25.721846
 C         -33.290791      -88.332985      -24.764929
 C         -32.281849      -88.301224      -27.170200
 C         -34.603176      -87.694275      -25.295551
 C         -33.510567      -87.427681      -27.529037
 C         -34.757671      -87.924858      -26.782179
 H         -33.035629      -88.004410      -23.782833
 H         -33.556862      -89.367432      -24.466602
 H         -31.447445      -87.902092      -27.716032
 H         -32.475063      -89.345329      -27.533516
 H         -34.621811      -86.547707      -25.153309
 H         -35.481220      -88.169434      -24.827057
 H         -33.576603      -87.529007      -28.653099
 H         -33.362785      -86.403824      -27.217295
 H         -35.577473      -87.403687      -27.217081
 H         -34.874855      -88.889099      -27.134939
