20
 generated by VMD
 C         -46.411800     -124.378204      -36.006561
 N         -46.958599     -125.323349      -35.581562
 H         -44.472847     -121.776146      -37.981892
 H         -46.081108     -123.530792      -36.647915
 C         -44.439365     -121.396797      -38.993858
 C         -43.223747     -121.570961      -39.809612
 C         -45.803646     -120.824326      -39.582382
 C         -43.541019     -121.867004      -41.337997
 C         -45.909607     -121.104614      -41.048103
 C         -44.616432     -120.880486      -41.863693
 H         -42.773251     -122.591125      -39.501068
 H         -42.475563     -120.795464      -39.729443
 H         -46.670696     -121.280144      -39.026260
 H         -45.915596     -119.749763      -39.353600
 H         -43.686512     -122.973381      -41.545113
 H         -42.592659     -121.761658      -41.922146
 H         -46.665726     -120.450272      -41.422516
 H         -46.150707     -122.127945      -41.329926
 H         -44.940231     -121.118256      -42.892048
 H         -44.262772     -119.806496      -41.929840
