20
 generated by VMD
 C         -20.625914      -57.379059      -16.669350
 N         -20.072813      -56.392582      -16.426476
 H         -22.831636      -60.227402      -17.868031
 H         -20.980152      -58.445831      -16.748665
 C         -22.385098      -60.461109      -16.918079
 C         -23.124817      -59.894951      -15.689755
 C         -21.327570      -61.485935      -16.886730
 C         -22.474682      -60.232468      -14.378349
 C         -20.933678      -62.063881      -15.535861
 C         -21.842552      -61.680500      -14.345780
 H         -24.080000      -60.456692      -15.720875
 H         -23.256952      -58.792343      -15.874959
 H         -21.458694      -62.312031      -17.575089
 H         -20.444284      -60.922718      -17.210247
 H         -23.096073      -60.027451      -13.522376
 H         -21.636339      -59.508198      -14.183534
 H         -19.801292      -61.901024      -15.310819
 H         -21.132280      -63.174820      -15.630401
 H         -22.622164      -62.414341      -14.181330
 H         -21.212101      -61.790703      -13.462092
