20
 generated by VMD
 C         -40.581902     -106.523262      -37.221905
 N         -39.618080     -106.717834      -37.811005
 H         -38.452946     -107.999924      -34.288593
 H         -41.564873     -106.444504      -36.820339
 C         -39.138672     -108.829254      -34.039795
 C         -38.534145     -109.883598      -33.089584
 C         -40.592545     -108.803848      -34.456345
 C         -39.593933     -110.342148      -32.093315
 C         -41.520187     -109.234703      -33.363537
 C         -40.975430     -110.502754      -32.646294
 H         -37.740322     -109.444107      -32.396263
 H         -38.198093     -110.805824      -33.575882
 H         -40.876991     -107.813591      -34.716961
 H         -40.750648     -109.429306      -35.396103
 H         -39.538567     -109.602699      -31.285936
 H         -39.516499     -111.355446      -31.597685
 H         -42.565525     -109.428314      -33.836639
 H         -41.514172     -108.381462      -32.665089
 H         -41.690353     -110.643326      -31.704323
 H         -41.015537     -111.389755      -33.182587
