20
 generated by VMD
 C         -67.058640     -189.683823      -66.717857
 N         -66.603493     -189.094284      -67.632462
 H         -69.340904     -189.733490      -64.730988
 H         -67.591637     -190.243210      -65.898674
 C         -70.206940     -189.429489      -64.115700
 C         -71.303932     -190.464081      -63.885105
 C         -70.425697     -187.947388      -63.670574
 C         -72.615051     -189.813889      -64.107246
 C         -71.879814     -187.510300      -63.523724
 C         -72.804771     -188.646622      -63.282341
 H         -71.136902     -190.777985      -62.829472
 H         -71.181061     -191.394302      -64.437660
 H         -69.966217     -187.825516      -62.638962
 H         -69.855644     -187.303055      -64.276741
 H         -73.421211     -190.519333      -63.913940
 H         -72.628746     -189.432541      -65.162025
 H         -71.958031     -186.993271      -64.495361
 H         -72.042557     -186.748322      -62.751091
 H         -72.967194     -188.866394      -62.174194
 H         -73.767143     -188.237518      -63.544785
