20
 generated by VMD
 C         -60.075802     -156.579147      -55.561142
 N         -60.887154     -155.992935      -56.139870
 H         -59.815296     -157.597275      -52.711037
 H         -59.248100     -157.206390      -55.181812
 C         -58.731770     -157.932831      -52.862026
 C         -57.606342     -156.979630      -52.722641
 C         -58.467377     -159.341629      -52.400455
 C         -57.415352     -156.826157      -51.172974
 C         -58.149944     -159.308441      -50.872677
 C         -57.103146     -158.301117      -50.445885
 H         -57.935879     -155.965530      -53.122570
 H         -56.894756     -157.363647      -53.411732
 H         -59.343723     -160.021698      -52.386681
 H         -57.648407     -159.737274      -53.048164
 H         -58.293289     -156.398453      -50.652401
 H         -56.482456     -156.200012      -50.879013
 H         -57.707436     -160.282288      -50.629707
 H         -59.033138     -159.100677      -50.379959
 H         -57.059357     -158.255966      -49.416889
 H         -56.022644     -158.570877      -50.791260
