20
 generated by VMD
 C         -57.903656     -150.617249      -48.681831
 N         -58.026371     -151.797104      -48.615482
 H         -55.358116     -149.663315      -47.622627
 H         -57.908833     -149.507965      -48.749641
 C         -54.960903     -149.225281      -48.505371
 C         -54.204788     -150.109177      -49.449772
 C         -54.948940     -147.788742      -48.880753
 C         -54.156883     -149.682709      -50.858109
 C         -54.979172     -147.428436      -50.410542
 C         -54.023277     -148.250137      -51.125351
 H         -54.654057     -151.121201      -49.523121
 H         -53.133064     -150.166031      -48.973442
 H         -55.857609     -147.356857      -48.391338
 H         -53.998402     -147.362656      -48.604443
 H         -55.140205     -149.926712      -51.265469
 H         -53.417141     -150.323563      -51.363430
 H         -54.816746     -146.356125      -50.572460
 H         -55.989979     -147.491272      -50.852516
 H         -54.235630     -147.999634      -52.256355
 H         -53.038357     -147.798889      -51.019814
