20
 generated by VMD
 C         -49.977989     -143.767563      -44.391403
 N         -49.287437     -143.643890      -45.303833
 H         -52.103302     -141.765427      -45.589703
 H         -50.698902     -144.060318      -43.613335
 C         -52.794159     -141.752747      -46.457077
 C         -52.225193     -141.713898      -47.809170
 C         -54.245186     -141.332886      -46.222752
 C         -53.141426     -142.367355      -48.931908
 C         -55.177601     -141.835602      -47.295052
 C         -54.543053     -141.755325      -48.736477
 H         -51.236450     -142.069305      -47.882191
 H         -52.043423     -140.683990      -47.983929
 H         -54.599354     -141.405746      -45.227047
 H         -54.385124     -140.229706      -46.219448
 H         -53.127266     -143.482819      -48.788963
 H         -52.882729     -142.173019      -49.978119
 H         -56.100414     -141.285126      -47.127457
 H         -55.360401     -142.890976      -47.269913
 H         -55.195511     -142.323029      -49.421242
 H         -54.384254     -140.700317      -49.026752
