20
 generated by VMD
 C         -28.271006      -82.191620      -26.381565
 N         -28.018944      -82.432365      -27.473379
 H         -30.554207      -83.864738      -26.402592
 H         -28.633892      -81.966034      -25.395607
 C         -31.167139      -84.480957      -25.646343
 C         -30.660854      -84.365631      -24.199213
 C         -31.892254      -85.774956      -25.990669
 C         -31.806078      -84.813438      -23.181787
 C         -32.883366      -86.292580      -24.879910
 C         -32.344971      -86.139679      -23.501713
 H         -30.363958      -83.351501      -23.791639
 H         -29.833796      -85.022949      -24.209925
 H         -32.471447      -85.673126      -26.954248
 H         -31.081852      -86.502937      -26.305836
 H         -32.589291      -84.011154      -23.340567
 H         -31.381271      -84.847595      -22.242023
 H         -33.114471      -87.336456      -24.879072
 H         -33.922405      -85.693764      -24.968929
 H         -33.156414      -86.396950      -22.691072
 H         -31.542488      -86.906380      -23.397711
