20
 generated by VMD
 C         -78.467522     -209.371536      -76.967033
 N         -78.280876     -209.178513      -78.129860
 H         -78.945328     -211.071060      -73.776924
 H         -78.528259     -209.614700      -75.905258
 C         -79.040298     -211.816391      -73.035172
 C         -77.858681     -212.123077      -72.127251
 C         -80.267517     -212.723602      -72.905487
 C         -78.180054     -212.349915      -70.663704
 C         -80.509651     -213.112076      -71.408363
 C         -79.308800     -213.464951      -70.538033
 H         -77.170395     -211.332153      -72.316658
 H         -77.384979     -213.058075      -72.440384
 H         -81.235710     -212.288101      -73.307556
 H         -80.007103     -213.580246      -73.506981
 H         -78.382019     -211.355118      -70.243034
 H         -77.348694     -212.795212      -70.040962
 H         -81.113350     -213.930771      -71.347496
 H         -81.182907     -212.412292      -70.872032
 H         -79.539635     -213.737061      -69.510880
 H         -78.781090     -214.431473      -70.926445
