20
 generated by VMD
 C         -23.088041      -55.216461      -16.857248
 N         -23.558331      -54.875370      -15.779170
 H         -19.327322      -55.335667      -15.520984
 H         -22.605915      -55.774635      -17.545563
 C         -19.337019      -56.203171      -14.931538
 C         -19.720573      -56.059132      -13.445076
 C         -18.394547      -57.331688      -15.143543
 C         -20.540751      -57.276699      -13.073026
 C         -18.910624      -58.671768      -14.614418
 C         -19.860613      -58.659798      -13.439977
 H         -20.214785      -55.119652      -13.202760
 H         -18.844353      -56.103981      -12.726323
 H         -18.248196      -57.436066      -16.168024
 H         -17.445200      -56.867321      -14.810348
 H         -21.447222      -57.277874      -13.702294
 H         -20.815561      -57.327343      -11.982048
 H         -18.103653      -59.395664      -14.517035
 H         -19.507734      -59.143925      -15.425133
 H         -20.664989      -59.359791      -13.589788
 H         -19.236296      -58.940922      -12.569452
