20
 generated by VMD
 C         -50.720856     -129.087921      -42.643990
 N         -50.824558     -128.173218      -41.978836
 H         -48.291973     -127.903328      -40.545979
 H         -50.345615     -129.826981      -43.312176
 C         -47.257473     -127.617157      -40.664009
 C         -46.062508     -128.388626      -40.122101
 C         -47.149380     -126.139076      -41.212906
 C         -44.856380     -128.170578      -40.928959
 C         -45.801517     -125.996521      -42.039913
 C         -44.652252     -126.687950      -41.205082
 H         -46.303913     -129.422226      -40.137695
 H         -45.919910     -128.182373      -39.005184
 H         -47.935486     -125.808205      -41.848480
 H         -47.270294     -125.352448      -40.307404
 H         -45.053185     -128.674683      -41.842018
 H         -44.041786     -128.629379      -40.406712
 H         -45.681305     -124.917244      -42.265759
 H         -46.003357     -126.601692      -42.916943
 H         -43.871346     -126.554596      -41.950466
 H         -44.557934     -126.093033      -40.316448
