20
 generated by VMD
 C         -67.555496     -179.908569      -58.401150
 N         -68.307907     -179.912949      -59.311283
 H         -67.374107     -176.886642      -60.265507
 H         -66.850479     -179.796021      -57.615479
 C         -66.379875     -176.282227      -60.071415
 C         -65.960213     -175.554153      -61.373363
 C         -65.300896     -176.875183      -59.337692
 C         -64.855782     -174.592545      -61.177486
 C         -64.130249     -175.801300      -59.211288
 C         -63.731213     -175.284592      -60.590488
 H         -66.910133     -175.156113      -61.727070
 H         -65.761696     -176.291290      -62.204475
 H         -65.609596     -177.206879      -58.363655
 H         -64.815788     -177.777771      -59.811920
 H         -65.126450     -173.820312      -60.409542
 H         -64.748833     -173.956314      -62.044983
 H         -63.161510     -176.277298      -58.858627
 H         -64.497131     -174.999344      -58.601101
 H         -62.759220     -174.859970      -60.451450
 H         -63.316486     -176.124390      -61.226597
