20
 generated by VMD
 C         -60.265965     -156.335114      -55.998600
 N         -60.788536     -155.332794      -55.808685
 H         -59.740643     -157.897980      -53.087433
 H         -59.767769     -157.250610      -56.157581
 C         -58.838676     -157.909302      -52.474403
 C         -58.000973     -156.710129      -52.406357
 C         -58.258728     -159.156616      -51.909008
 C         -57.264423     -156.434326      -51.095314
 C         -57.475220     -158.936539      -50.645428
 C         -56.538746     -157.677216      -50.686886
 H         -58.573509     -155.768173      -52.750305
 H         -57.295662     -156.770630      -53.232201
 H         -59.109425     -159.954437      -51.841927
 H         -57.523956     -159.544830      -52.632149
 H         -57.802677     -156.086945      -50.229309
 H         -56.568054     -155.589233      -51.353729
 H         -56.926704     -159.918671      -50.278015
 H         -58.230480     -158.679901      -49.797195
 H         -55.984550     -157.487305      -49.797020
 H         -55.702129     -157.873688      -51.425129
