20
 generated by VMD
 C         -58.554806     -161.441589      -56.304665
 N         -58.382374     -160.242188      -56.412369
 H         -59.425591     -164.761139      -55.174503
 H         -58.811909     -162.503418      -56.160786
 C         -60.209820     -164.137283      -54.666073
 C         -59.761478     -163.592682      -53.384533
 C         -61.632088     -164.231094      -54.931992
 C         -60.380241     -162.193344      -53.285061
 C         -62.305717     -162.913071      -54.600044
 C         -61.823975     -162.186554      -53.382301
 H         -58.705383     -163.438828      -53.423584
 H         -60.111855     -164.233704      -52.674366
 H         -61.746395     -164.466431      -56.057499
 H         -61.997982     -164.963974      -54.262665
 H         -59.906971     -161.514313      -54.018997
 H         -59.975410     -161.800674      -52.247437
 H         -63.468048     -163.013367      -54.685387
 H         -62.223816     -162.169189      -55.520573
 H         -62.162624     -161.112228      -53.496136
 H         -62.318336     -162.618088      -52.481693
