20
 generated by VMD
 C         -79.550964     -206.891113      -75.089592
 N         -79.921516     -207.603287      -74.229881
 H         -77.141998     -207.270538      -73.011101
 H         -79.408218     -206.058990      -75.845985
 C         -76.788177     -208.042725      -72.231934
 C         -75.585480     -207.900986      -71.422630
 C         -77.931267     -208.940643      -71.705505
 C         -76.031097     -207.495178      -69.989609
 C         -78.115517     -208.895599      -70.188843
 C         -76.782913     -208.648407      -69.463951
 H         -75.009438     -206.979507      -71.704124
 H         -74.914131     -208.765762      -71.575127
 H         -78.843391     -208.660583      -72.273506
 H         -77.682884     -209.889191      -72.136650
 H         -76.677238     -206.583511      -69.953262
 H         -75.109413     -207.330841      -69.394974
 H         -78.687798     -209.804840      -69.863159
 H         -78.719406     -208.013000      -69.966370
 H         -76.932297     -208.804947      -68.389992
 H         -76.053452     -209.429749      -69.687416
