20
 generated by VMD
 C         -49.655056     -141.498611      -45.538246
 N         -49.633263     -142.537018      -44.991650
 H         -51.664158     -138.722137      -46.201202
 H         -49.897449     -140.583588      -46.112499
 C         -52.247501     -139.676010      -46.407402
 C         -52.716854     -139.722656      -47.892807
 C         -52.969624     -140.315613      -45.410824
 C         -53.041977     -141.213120      -48.210785
 C         -53.479855     -141.748367      -45.862400
 C         -54.031616     -141.751968      -47.246918
 H         -51.946621     -139.485077      -48.644939
 H         -53.600826     -139.095520      -47.968929
 H         -52.274940     -140.300934      -44.498615
 H         -53.839375     -139.690155      -45.194382
 H         -52.078373     -141.799103      -48.040161
 H         -53.437702     -141.296677      -49.278412
 H         -54.219387     -141.942047      -45.042896
 H         -52.679832     -142.438400      -45.875031
 H         -54.201687     -142.735641      -47.639679
 H         -54.890553     -141.109451      -47.239307
