20
 generated by VMD
 C         -50.670078     -129.930283      -45.198734
 N         -51.184784     -129.296127      -44.328323
 H         -49.061764     -129.220245      -42.714443
 H         -50.208694     -130.233658      -46.107460
 C         -48.230320     -129.434814      -42.095219
 C         -47.996727     -130.696274      -41.412437
 C         -47.536495     -128.343964      -41.432144
 C         -46.476753     -131.128174      -41.264179
 C         -46.021343     -128.576218      -41.218220
 C         -45.687347     -129.944077      -40.543266
 H         -48.436405     -131.538086      -41.920170
 H         -48.547646     -130.682129      -40.361431
 H         -47.614777     -127.471970      -42.139156
 H         -47.917969     -128.096466      -40.408379
 H         -45.884193     -131.169296      -42.177441
 H         -46.570320     -131.983856      -40.526894
 H         -45.586349     -127.777756      -40.680557
 H         -45.413975     -128.637421      -42.135788
 H         -44.642307     -130.118622      -40.312725
 H         -46.152714     -129.760284      -39.517872
