20
 generated by VMD
 C         -47.972797     -134.678299      -46.686424
 N         -47.935623     -134.326355      -47.822224
 H         -50.378803     -134.607498      -45.114693
 H         -47.698051     -134.731796      -45.649681
 C         -50.631752     -135.456085      -44.397816
 C         -51.067001     -136.595123      -45.195892
 C         -51.115894     -135.174698      -43.023190
 C         -51.030918     -137.859055      -44.291332
 C         -51.117828     -136.440002      -42.244671
 C         -51.787628     -137.616501      -43.021885
 H         -50.421780     -136.685165      -46.094761
 H         -52.089470     -136.382904      -45.594887
 H         -50.581951     -134.415894      -42.517368
 H         -52.183487     -134.889297      -43.060669
 H         -49.990570     -138.203049      -44.327545
 H         -51.563099     -138.649597      -44.801632
 H         -51.598133     -136.327484      -41.200657
 H         -50.049038     -136.772690      -42.120514
 H         -51.649273     -138.525986      -42.464520
 H         -52.719124     -137.324982      -43.357136
