20
 generated by VMD
 C         -65.849709     -177.690887      -56.915245
 N         -66.296829     -176.633881      -57.142647
 H         -64.967407     -175.824142      -59.482124
 H         -65.485023     -178.644409      -56.597473
 C         -64.528114     -174.738327      -59.381824
 C         -65.527382     -173.742950      -58.684608
 C         -63.535568     -174.332077      -60.320541
 C         -65.224052     -172.161224      -59.016777
 C         -63.140579     -172.916290      -60.154465
 C         -64.366264     -172.041245      -60.279720
 H         -65.416626     -173.786224      -57.518940
 H         -66.525917     -174.106216      -58.789951
 H         -62.564625     -174.902283      -60.281021
 H         -63.791245     -174.686096      -61.294865
 H         -64.882957     -171.768814      -58.042591
 H         -66.217705     -171.644882      -59.160919
 H         -62.404179     -172.660675      -60.904316
 H         -62.604805     -172.732651      -59.177448
 H         -64.047150     -171.033173      -60.495789
 H         -65.064529     -172.301636      -61.197788
