20
 generated by VMD
 C         -31.960398      -76.275543      -24.516582
 N         -31.573826      -76.730507      -25.529999
 H         -29.326223      -77.049881      -22.278675
 H         -31.932354      -75.848534      -23.620487
 C         -28.550810      -77.807083      -22.168873
 C         -27.519323      -78.090660      -23.240543
 C         -28.508575      -78.581718      -20.914246
 C         -26.151905      -78.137314      -22.721693
 C         -27.051933      -78.549324      -20.450960
 C         -26.055952      -79.051048      -21.552872
 H         -27.587343      -77.238136      -23.973742
 H         -27.673321      -79.115578      -23.626320
 H         -29.131517      -78.204994      -20.147909
 H         -28.588736      -79.699585      -21.017965
 H         -25.694912      -77.150009      -22.424257
 H         -25.488716      -78.439323      -23.542400
 H         -27.028658      -79.071350      -19.469778
 H         -26.716753      -77.460342      -20.196449
 H         -25.038223      -78.981377      -21.206367
 H         -26.154062      -80.151550      -21.727314
