20
 generated by VMD
 C         -41.047955     -104.036682      -35.896759
 N         -41.865097     -104.861404      -36.034405
 H         -38.297840     -104.087387      -33.568535
 H         -40.384777     -103.238731      -35.749794
 C         -38.313129     -104.860588      -32.820160
 C         -36.884789     -105.225540      -32.417461
 C         -39.259296     -105.971809      -33.099224
 C         -36.939560     -106.223579      -31.231632
 C         -39.188686     -107.031212      -31.981485
 C         -37.821575     -107.388512      -31.569302
 H         -36.375515     -104.329102      -32.179989
 H         -36.529404     -105.629517      -33.331886
 H         -40.256596     -105.685410      -33.221584
 H         -38.953430     -106.424408      -34.125206
 H         -37.302437     -105.679390      -30.289846
 H         -35.939384     -106.599571      -30.853727
 H         -39.525402     -107.822342      -32.575485
 H         -39.976254     -106.956230      -31.213585
 H         -37.839409     -108.110039      -30.664246
 H         -37.372608     -107.999947      -32.307034
