20
 generated by VMD
 C         -12.621964      -27.967129       -4.676579
 N         -13.110764      -27.786266       -5.660872
 H         -10.881421      -30.816082       -2.805890
 H         -11.054687      -29.194874       -3.845720
 C         -10.375558      -30.010984       -3.438405
 C          -9.658342      -30.667259       -4.576926
 C          -9.313466      -29.458918       -2.497481
 C          -8.690524      -29.773991       -5.336105
 C          -8.488856      -28.442989       -3.191865
 C          -7.755757      -29.020430       -4.309440
 H         -10.434703      -31.020731       -5.260725
 H          -9.003138      -31.526571       -4.180706
 H          -9.766766      -28.960125       -1.654660
 H          -8.655857      -30.238768       -2.100085
 H          -9.240707      -28.928576       -5.871671
 H          -8.074709      -30.388517       -6.034721
 H          -7.826562      -28.127653       -2.425164
 H          -9.200301      -27.634697       -3.447564
 H          -7.217782      -28.286469       -4.881852
 H          -7.008744      -29.695509       -3.927134
