20
 generated by VMD
 C         -35.424557      -97.510452      -25.547176
 N         -35.033363      -97.722549      -26.614489
 H         -35.744663      -94.543884      -27.722876
 H         -35.596428      -97.247047      -24.442667
 C         -35.364544      -94.426712      -28.723412
 C         -35.903328      -95.367081      -29.813601
 C         -33.949207      -93.972961      -28.997864
 C         -35.669231      -94.866585      -31.266056
 C         -33.781624      -93.491875      -30.427336
 C         -34.285816      -94.329620      -31.515757
 H         -36.951847      -95.464935      -29.748411
 H         -35.458210      -96.395378      -29.664703
 H         -33.684784      -93.270821      -28.234690
 H         -33.351879      -94.894493      -28.926153
 H         -36.466488      -94.242744      -31.650129
 H         -35.660591      -95.864510      -31.871988
 H         -32.777573      -93.268616      -30.695009
 H         -34.411652      -92.517281      -30.323608
 H         -34.102577      -93.920357      -32.578674
 H         -33.612900      -95.090988      -31.620428
