20
 generated by VMD
 C         -38.098217     -107.955795      -36.966991
 N         -38.477432     -108.290665      -37.998756
 H         -41.155468     -108.887878      -35.703419
 H         -37.687668     -107.757599      -36.017529
 C         -41.173199     -109.421074      -34.824017
 C         -40.324680     -110.752449      -34.998413
 C         -42.426563     -109.783035      -33.959072
 C         -40.087753     -111.582634      -33.709530
 C         -42.210812     -110.696907      -32.703136
 C         -41.392815     -111.869972      -33.100208
 H         -39.278099     -110.530907      -35.401218
 H         -40.697910     -111.466690      -35.767651
 H         -42.865795     -108.913315      -33.555344
 H         -43.151329     -110.372490      -34.527889
 H         -39.407394     -110.854820      -33.145477
 H         -39.455677     -112.459541      -33.874577
 H         -43.221443     -110.990326      -32.324482
 H         -41.679943     -110.212418      -31.919275
 H         -41.290459     -112.512428      -32.276909
 H         -42.017193     -112.381889      -33.932224
