20
 generated by VMD
 C         -79.549789     -206.759262      -74.878624
 N         -80.136078     -206.098495      -74.164810
 H         -78.485161     -206.647812      -71.282448
 H         -78.936752     -207.484802      -75.468246
 C         -77.507973     -206.956711      -71.130722
 C         -76.275803     -206.146210      -71.425957
 C         -77.342445     -208.139236      -70.360893
 C         -75.349854     -205.985474      -70.226349
 C         -76.325790     -208.003876      -69.163254
 C         -74.972725     -207.302277      -69.582146
 H         -76.493538     -205.193192      -71.772964
 H         -75.984795     -206.696014      -72.282379
 H         -78.357300     -208.570465      -70.069138
 H         -76.902908     -208.866531      -71.041801
 H         -75.884193     -205.277100      -69.523216
 H         -74.410385     -205.438492      -70.410774
 H         -76.156136     -209.020355      -68.811050
 H         -76.801300     -207.368057      -68.356407
 H         -74.246918     -207.275467      -68.782326
 H         -74.552238     -208.004471      -70.329041
