20
 generated by VMD
 C         -41.985931     -101.815170      -33.575985
 N         -40.853165     -101.818474      -33.906109
 H         -39.011974     -103.717690      -32.771767
 H         -43.038376     -101.544228      -33.345085
 C         -38.095947     -103.662376      -32.264675
 C         -36.905907     -103.628273      -33.091179
 C         -37.933708     -104.202316      -30.868345
 C         -35.757324     -102.849335      -32.352638
 C         -36.663872     -103.701973      -30.165451
 C         -35.419518     -103.500694      -31.074669
 H         -37.165138     -103.236847      -34.128872
 H         -36.528481     -104.633095      -33.290733
 H         -38.711273     -103.857117      -30.178679
 H         -37.942383     -105.299034      -30.808878
 H         -36.168324     -101.879868      -32.243767
 H         -34.911751     -102.735855      -32.934216
 H         -36.306145     -104.364311      -29.409063
 H         -37.094521     -102.789864      -29.605303
 H         -34.713345     -102.914116      -30.550884
 H         -34.926712     -104.419800      -31.440987
