20
 generated by VMD
 C         -69.284409     -185.052429      -66.626053
 N         -69.288979     -185.134369      -67.777046
 H         -69.644859     -183.132858      -63.192516
 H         -69.199883     -184.929871      -65.603065
 C         -69.266830     -183.204971      -62.174473
 C         -69.685120     -184.476334      -61.489231
 C         -68.111694     -182.539108      -61.638901
 C         -68.661377     -185.508377      -61.055317
 C         -67.002403     -183.405853      -61.251518
 C         -67.434929     -184.635498      -60.494545
 H         -70.485550     -185.029129      -62.050499
 H         -70.267479     -184.119247      -60.648487
 H         -67.800728     -181.751694      -62.341045
 H         -68.505013     -181.948990      -60.709518
 H         -68.430038     -186.156113      -61.873257
 H         -68.969093     -186.165070      -60.265274
 H         -66.241875     -182.961395      -60.625443
 H         -66.521812     -183.562836      -62.219826
 H         -66.540283     -185.412506      -60.644794
 H         -67.643280     -184.543716      -59.444477
