20
 generated by VMD
 C         -48.114037     -140.312622      -45.761009
 N         -46.992344     -139.980164      -45.623230
 H         -51.073746     -138.988754      -45.161812
 H         -49.226944     -140.360428      -45.845974
 C         -51.961033     -139.322327      -45.689396
 C         -52.237427     -139.377502      -47.181179
 C         -53.167862     -139.268661      -44.862709
 C         -53.268101     -140.484177      -47.453823
 C         -54.098465     -140.419724      -45.126259
 C         -54.483189     -140.484039      -46.597771
 H         -51.340290     -139.712128      -47.754997
 H         -52.676865     -138.406433      -47.478210
 H         -52.933403     -139.303619      -43.769241
 H         -53.448875     -138.259445      -45.189861
 H         -52.828835     -141.505707      -47.518253
 H         -53.713028     -140.330353      -48.459358
 H         -54.980812     -140.390686      -44.534164
 H         -53.539062     -141.377884      -44.795502
 H         -54.958599     -141.364349      -46.878551
 H         -55.203056     -139.760574      -46.867893
