20
 generated by VMD
 C         -40.998661     -100.829468      -32.865570
 N         -41.747330     -101.300507      -32.144386
 H         -38.349796     -102.928909      -32.486046
 H         -40.052780     -100.515114      -33.337223
 C         -37.416531     -102.913055      -31.941847
 C         -36.296165     -102.675041      -32.902843
 C         -37.137226     -102.828041      -30.570530
 C         -35.215546     -101.750587      -32.410294
 C         -36.326160     -101.675972      -30.081224
 C         -35.010696     -101.821892      -30.715435
 H         -36.660007     -102.314926      -33.868313
 H         -35.849442     -103.665810      -33.145023
 H         -38.143375     -102.871010      -29.991318
 H         -36.687546     -103.790802      -30.400085
 H         -35.330307     -100.677902      -32.564510
 H         -34.262566     -101.974884      -32.828781
 H         -36.151058     -101.648254      -29.053495
 H         -36.727242     -100.664963      -30.317350
 H         -34.382877     -100.919281      -30.447077
 H         -34.512241     -102.772614      -30.544317
