20
 generated by VMD
 C         -12.638294      -27.984741       -5.601596
 N         -13.129316      -28.415663       -6.502607
 H         -11.981880      -31.698469       -4.644341
 H         -11.258790      -30.199331       -5.179056
 C         -11.052529      -31.123970       -4.655981
 C         -10.003586      -31.977699       -5.359786
 C         -10.636378      -30.873146       -3.191370
 C          -8.545425      -31.342529       -5.249901
 C          -9.375526      -30.065458       -3.052418
 C          -8.200876      -30.765667       -3.755196
 H         -10.205506      -32.181034       -6.391973
 H          -9.831856      -32.998821       -4.850797
 H         -11.430523      -30.306702       -2.631933
 H         -10.490799      -31.843540       -2.715432
 H          -8.500875      -30.507534       -6.042894
 H          -7.736218      -32.087128       -5.475632
 H          -9.148678      -29.944208       -1.995534
 H          -9.534985      -29.029844       -3.429712
 H          -7.357645      -30.046499       -3.931720
 H          -7.925726      -31.612537       -3.146250
