20
 generated by VMD
 C         -47.961807     -134.606094      -46.834602
 N         -47.972965     -134.166245      -47.967827
 H         -50.288708     -134.337280      -44.871449
 H         -47.785263     -134.925842      -45.790386
 C         -50.599697     -135.298553      -44.365368
 C         -50.865021     -136.496414      -45.086533
 C         -51.036423     -135.142807      -42.957718
 C         -50.943733     -137.785294      -44.229450
 C         -51.270962     -136.459351      -42.144196
 C         -51.765507     -137.599670      -42.946129
 H         -50.172001     -136.645050      -45.889622
 H         -51.885975     -136.482101      -45.532471
 H         -50.451767     -134.507767      -42.376766
 H         -51.968349     -134.569565      -43.177364
 H         -49.935650     -138.210785      -43.944813
 H         -51.523773     -138.511581      -44.752747
 H         -51.781204     -136.131012      -41.185795
 H         -50.233288     -136.795303      -41.817074
 H         -52.004616     -138.529907      -42.387665
 H         -52.788456     -137.489151      -43.169605
