20
 generated by VMD
 C         -79.281105     -205.853180      -74.251770
 N         -79.214966     -206.784927      -73.579369
 H         -78.775917     -205.949036      -70.339310
 H         -79.074234     -204.942886      -74.736298
 C         -77.799149     -206.343018      -70.431084
 C         -76.712616     -205.710190      -71.323929
 C         -77.154427     -207.619949      -69.948380
 C         -75.350365     -205.517883      -70.676796
 C         -75.855988     -207.501266      -69.220642
 C         -74.863525     -206.893845      -70.181274
 H         -77.329422     -204.781265      -71.573761
 H         -76.474266     -206.226532      -72.336693
 H         -77.888161     -208.141098      -69.329552
 H         -77.131638     -208.237198      -70.833183
 H         -75.465828     -204.835327      -69.770386
 H         -74.697716     -204.925247      -71.325478
 H         -75.462379     -208.420151      -68.873283
 H         -75.942520     -206.771469      -68.335228
 H         -73.892326     -206.723419      -69.632301
 H         -74.615074     -207.505386      -71.019226
