20
 generated by VMD
 C          -1.356462      -13.326234        0.772989
 N          -0.427645      -13.574080        0.194758
 H          -4.344170      -13.730358        2.035480
 H          -5.187015      -13.886310        0.518712
 C          -5.029088      -14.378483        1.461049
 C          -6.293628      -14.565132        2.303144
 C          -4.343048      -15.721836        1.071697
 C          -7.249470      -15.527193        1.576525
 C          -5.309859      -16.559286        0.353684
 C          -6.580137      -16.850548        1.142284
 H          -6.748715      -13.635692        2.582437
 H          -6.099183      -14.979617        3.310133
 H          -3.490806      -15.531011        0.362273
 H          -3.855531      -16.298159        1.920581
 H          -7.713741      -14.964921        0.733339
 H          -8.100698      -15.788666        2.225123
 H          -4.918464      -17.515024       -0.052442
 H          -5.649334      -16.037630       -0.548388
 H          -7.213746      -17.468214        0.498180
 H          -6.350307      -17.527868        1.940853
