20
 generated by VMD
 C         -51.213539     -129.708786      -45.219379
 N         -51.613522     -130.199799      -46.211346
 H         -48.551254     -130.398773      -43.587582
 H         -50.456127     -129.228439      -44.600868
 C         -48.039951     -130.510391      -42.580524
 C         -48.159405     -131.804199      -41.977211
 C         -47.665974     -129.343979      -41.828075
 C         -46.866554     -132.135193      -41.203072
 C         -46.421467     -129.630371      -40.970917
 C         -46.510075     -131.002502      -40.195591
 H         -48.201183     -132.648468      -42.629650
 H         -49.085178     -131.865784      -41.295490
 H         -47.408428     -128.579208      -42.566608
 H         -48.445030     -129.062195      -41.164528
 H         -46.057312     -132.302368      -41.873428
 H         -47.119144     -133.110809      -40.787796
 H         -46.144028     -128.888367      -40.240692
 H         -45.430328     -129.808426      -41.550377
 H         -45.429626     -131.241562      -39.858391
 H         -47.240536     -130.802536      -39.382710
