20
 generated by VMD
 C         -20.007835      -50.083244       -9.635996
 N         -19.810087      -51.232761       -9.632558
 H         -16.880568      -48.272846       -9.924742
 H         -20.368940      -49.250114       -9.730478
 C         -16.855925      -48.553848      -10.969626
 C         -15.926117      -49.526070      -11.557997
 C         -17.333668      -47.570290      -11.994353
 C         -15.978958      -49.981026      -13.077178
 C         -17.884243      -48.333309      -13.249112
 C         -16.810293      -49.062061      -14.008523
 H         -15.825879      -50.407875      -10.943457
 H         -14.968325      -48.983551      -11.552795
 H         -18.130684      -46.955624      -11.630920
 H         -16.512459      -46.972954      -12.323163
 H         -16.406250      -51.011497      -13.031835
 H         -14.936935      -50.087585      -13.456759
 H         -18.306156      -47.590824      -14.003357
 H         -18.693987      -48.966515      -12.940578
 H         -17.258902      -49.525463      -14.921154
 H         -16.076488      -48.320774      -14.467416
