20
 generated by VMD
 C          -2.571978       -8.679444       -0.181747
 N          -1.456063       -8.642856       -0.398221
 H          -3.146109       -9.679751        2.711289
 H          -1.875627      -10.872357        3.424366
 C          -2.952773      -10.741036        3.160142
 C          -3.190883      -11.748442        2.043909
 C          -3.819997      -10.962140        4.414746
 C          -3.259603      -13.222636        2.491949
 C          -3.871797      -12.460857        4.830622
 C          -4.295885      -13.384620        3.706939
 H          -2.413110      -11.587322        1.253818
 H          -4.207587      -11.506933        1.640468
 H          -3.391768      -10.285752        5.193425
 H          -4.845148      -10.527614        4.168159
 H          -2.298666      -13.662254        2.825365
 H          -3.661741      -13.871436        1.645905
 H          -4.492373      -12.571405        5.693192
 H          -2.892691      -12.683330        5.225982
 H          -4.310331      -14.426139        3.958043
 H          -5.272976      -13.025093        3.385206
