20
 generated by VMD
 C         -38.383251     -111.073746      -36.323990
 N         -38.237530     -109.956177      -36.439671
 H         -40.324444     -114.026947      -35.124912
 H         -38.388229     -112.180275      -36.396099
 C         -41.102551     -113.419632      -35.494461
 C         -41.925304     -113.818092      -36.717289
 C         -41.677109     -112.234169      -34.711761
 C         -43.312649     -114.105309      -36.384583
 C         -43.045532     -112.644630      -34.228485
 C         -43.917721     -113.171875      -35.350712
 H         -41.508778     -114.677032      -37.212093
 H         -41.820480     -113.021545      -37.514996
 H         -40.936508     -112.148735      -33.843353
 H         -41.570450     -111.334404      -35.378242
 H         -43.286163     -115.092667      -35.875725
 H         -43.838451     -113.918999      -37.280792
 H         -43.659927     -111.863792      -33.727623
 H         -42.890644     -113.505112      -33.509541
 H         -44.833931     -113.588608      -34.888622
 H         -44.127411     -112.252480      -35.720779
