20
 generated by VMD
 C         -13.892804      -28.749834       -7.118148
 N         -13.257712      -28.903091       -8.021743
 H         -11.719733      -30.463087       -4.921982
 H         -10.186695      -29.956905       -4.127838
 C         -10.810148      -30.793524       -4.453018
 C          -9.987017      -31.518312       -5.466715
 C         -11.003216      -31.716415       -3.214242
 C          -8.640840      -31.987942       -5.032948
 C          -9.608387      -32.151730       -2.707842
 C          -8.828568      -32.843254       -3.823545
 H          -9.913586      -30.831909       -6.256700
 H         -10.593097      -32.363434       -5.885666
 H         -11.544704      -31.184126       -2.436804
 H         -11.575976      -32.579559       -3.559273
 H          -8.064473      -31.101116       -4.840911
 H          -8.123159      -32.545612       -5.783918
 H          -9.700203      -32.916298       -1.851636
 H          -8.974545      -31.378862       -2.370360
 H          -7.852947      -33.095409       -3.411132
 H          -9.330306      -33.759239       -4.113730
