20
 generated by VMD
 C         -13.053474      -28.114017       -3.918815
 N         -13.917043      -27.534912       -4.298257
 H         -10.666816      -29.006216       -2.779775
 H         -10.266039      -27.584944       -3.660760
 C          -9.785706      -28.522511       -3.203955
 C          -9.309181      -29.508303       -4.361994
 C          -8.624275      -28.076353       -2.398832
 C          -8.187989      -28.902588       -5.225573
 C          -7.581383      -27.398340       -3.250279
 C          -7.035450      -28.344824       -4.348505
 H         -10.252900      -29.802221       -4.905446
 H          -8.928213      -30.360531       -3.868186
 H          -8.936141      -27.442127       -1.523745
 H          -8.109131      -28.931267       -1.872601
 H          -8.573837      -28.031281       -5.691419
 H          -7.734929      -29.594654       -5.928376
 H          -6.762122      -26.927803       -2.634392
 H          -8.106316      -26.603004       -3.746678
 H          -6.302173      -27.854160       -5.016350
 H          -6.614452      -29.278175       -3.937651
