20
 generated by VMD
 C         -70.657043     -181.327438      -64.102722
 N         -70.560883     -182.316711      -63.455639
 H         -68.217209     -181.406891      -61.033131
 H         -70.736412     -180.465714      -64.816368
 C         -67.350601     -180.847778      -60.894806
 C         -66.246216     -181.667648      -60.296864
 C         -67.348648     -179.400650      -60.525879
 C         -64.909721     -180.962646      -60.870056
 C         -65.946426     -178.707001      -60.759468
 C         -64.786568     -179.573990      -60.345963
 H         -66.279991     -182.689102      -60.708942
 H         -66.304321     -181.559555      -59.152725
 H         -68.075935     -178.789505      -61.054283
 H         -67.592583     -179.307678      -59.361725
 H         -64.730042     -180.818359      -62.010540
 H         -63.989716     -181.582184      -60.596825
 H         -65.790581     -177.711823      -60.355740
 H         -65.884499     -178.541489      -61.852646
 H         -63.945366     -179.081268      -60.645111
 H         -64.803833     -179.649384      -59.227394
