20
 generated by VMD
 C         -20.224916      -56.255386      -16.797131
 N         -21.392115      -56.141205      -17.022604
 H         -22.809540      -58.967983      -16.806927
 H         -19.308002      -56.265133      -16.288727
 C         -22.247280      -59.616184      -16.179636
 C         -22.415844      -59.237583      -14.743596
 C         -21.791929      -60.939167      -16.528416
 C         -21.196861      -59.669250      -13.936291
 C         -20.770369      -61.530884      -15.621846
 C         -20.908234      -61.210663      -14.159399
 H         -23.382069      -59.640289      -14.351245
 H         -22.569935      -58.149921      -14.561984
 H         -22.616697      -61.617599      -16.490768
 H         -21.405031      -60.969837      -17.537527
 H         -21.265295      -59.358227      -12.898667
 H         -20.301294      -59.183895      -14.355779
 H         -19.729822      -61.321896      -15.871421
 H         -20.666870      -62.597061      -15.807817
 H         -21.842663      -61.709873      -13.877263
 H         -20.038904      -61.575603      -13.540508
