20
 generated by VMD
 C         -19.974503      -56.290012      -16.794163
 N         -21.056965      -56.418842      -16.285820
 H         -21.889015      -59.406982      -17.204733
 H         -19.304766      -56.265423      -17.533459
 C         -22.524237      -60.225105      -16.698534
 C         -22.827616      -59.607716      -15.350509
 C         -21.858688      -61.605431      -16.633135
 C         -21.512562      -59.744118      -14.420923
 C         -20.853561      -61.915581      -15.524764
 C         -21.310881      -61.285156      -14.172553
 H         -23.693743      -60.094357      -14.828070
 H         -23.017006      -58.473476      -15.563540
 H         -22.637980      -62.298336      -16.409458
 H         -21.437960      -61.773697      -17.614983
 H         -21.653173      -59.224491      -13.513170
 H         -20.643690      -59.244709      -14.864655
 H         -19.898645      -61.377201      -15.817578
 H         -20.695997      -62.985744      -15.288211
 H         -22.180338      -61.705688      -13.697501
 H         -20.508675      -61.431927      -13.415189
