20
 generated by VMD
 C         -56.666592     -150.004852      -47.859154
 N         -57.586224     -150.501907      -48.278152
 H         -53.465866     -148.510895      -47.389130
 H         -55.750328     -149.580383      -47.389847
 C         -53.970390     -148.397476      -48.401241
 C         -53.269096     -149.061737      -49.481396
 C         -54.817623     -147.183868      -48.508030
 C         -54.186790     -149.014679      -50.793335
 C         -55.559639     -147.024719      -49.840775
 C         -54.828140     -147.611832      -51.135113
 H         -53.177204     -150.213501      -49.248211
 H         -52.345474     -148.571457      -49.707722
 H         -55.588444     -147.262619      -47.709759
 H         -54.187477     -146.350464      -48.165791
 H         -54.989471     -149.796494      -50.647549
 H         -53.601376     -149.411652      -51.621670
 H         -55.723396     -145.935394      -50.024311
 H         -56.553448     -147.585373      -49.965309
 H         -55.511383     -147.727417      -52.013226
 H         -53.997593     -146.906998      -51.413601
