20
 generated by VMD
 C         -48.393925     -135.717667      -46.377777
 N         -47.520863     -135.808212      -45.676502
 H         -51.979954     -134.918472      -45.878864
 H         -49.396156     -135.584549      -46.691372
 C         -51.803703     -135.719391      -45.242241
 C         -52.407543     -137.008774      -45.512070
 C         -51.267563     -135.585800      -43.743885
 C         -51.555977     -138.255768      -45.068710
 C         -50.495647     -136.845612      -43.345928
 C         -51.081703     -138.142181      -43.576366
 H         -52.655357     -137.046310      -46.540310
 H         -53.369579     -137.049561      -44.918270
 H         -50.696007     -134.719635      -43.805786
 H         -52.095623     -135.446503      -43.087093
 H         -50.577057     -138.325958      -45.647259
 H         -52.095867     -139.194336      -45.141491
 H         -50.245136     -136.752426      -42.253208
 H         -49.431385     -136.877762      -43.836857
 H         -50.415569     -138.913589      -43.228626
 H         -52.055645     -138.434708      -42.858387
