20
 generated by VMD
 C         -49.817387     -141.700317      -45.256104
 N         -49.373890     -142.804016      -45.247959
 H         -51.679024     -139.022766      -45.909328
 H         -50.350552     -140.717834      -45.290886
 C         -52.271141     -139.869736      -46.387714
 C         -52.443493     -140.106750      -47.851227
 C         -53.281902     -140.420029      -45.548054
 C         -53.044014     -141.411224      -48.337635
 C         -53.833031     -141.789688      -45.991661
 C         -54.191109     -141.799484      -47.506153
 H         -51.425362     -139.975891      -48.168182
 H         -53.109451     -139.307465      -48.279068
 H         -53.008255     -140.409714      -44.498280
 H         -54.149521     -139.644516      -45.444000
 H         -52.396069     -142.305542      -48.262093
 H         -53.357380     -141.177719      -49.391472
 H         -54.718506     -142.119858      -45.406765
 H         -53.010792     -142.512115      -45.774757
 H         -54.693108     -142.745758      -47.852730
 H         -54.947315     -140.969254      -47.529430
