20
 generated by VMD
 C         -68.540718     -185.418610      -67.133018
 N         -67.737434     -184.582123      -67.173035
 H         -69.037422     -188.463776      -64.674057
 H         -69.324234     -186.149155      -67.084251
 C         -69.306046     -188.000031      -63.727631
 C         -69.386719     -186.482513      -63.729286
 C         -70.357315     -188.697479      -62.818184
 C         -69.466370     -185.854019      -62.329502
 C         -70.519737     -188.076370      -61.445366
 C         -70.559082     -186.512985      -61.487141
 H         -70.188980     -186.150192      -64.308960
 H         -68.585312     -186.080460      -64.291115
 H         -71.254677     -188.563324      -63.395153
 H         -70.296448     -189.744568      -62.813473
 H         -69.444588     -184.718262      -62.381226
 H         -68.571045     -186.106644      -61.805538
 H         -69.627174     -188.249542      -60.861961
 H         -71.480202     -188.410400      -61.092144
 H         -71.536552     -186.185883      -61.909367
 H         -70.505424     -186.347443      -60.271404
