20
 generated by VMD
 C         -69.118401     -180.794617      -62.514606
 N         -70.099937     -180.269394      -62.135750
 H         -66.694138     -181.134720      -59.473305
 H         -68.202034     -181.248413      -62.948940
 C         -66.393333     -180.223129      -60.012764
 C         -65.107903     -180.292526      -60.765858
 C         -66.992531     -178.888138      -59.488735
 C         -64.789627     -179.041245      -61.522873
 C         -66.545555     -177.719360      -60.334530
 C         -65.058105     -177.830017      -60.647476
 H         -65.079674     -181.170975      -61.414810
 H         -64.338409     -180.348770      -60.035717
 H         -68.102852     -178.936844      -59.644455
 H         -66.806915     -178.870193      -58.430565
 H         -65.281128     -179.037231      -62.538704
 H         -63.709023     -178.999069      -61.834694
 H         -66.692558     -176.756104      -59.868401
 H         -67.076469     -177.764297      -61.330414
 H         -64.927269     -177.103653      -61.439445
 H         -64.263710     -177.654129      -59.952084
