20
 generated by VMD
 C         -47.816502     -125.764755      -38.861324
 N         -48.434052     -126.729218      -38.574699
 H         -46.007099     -123.276573      -38.135441
 H         -47.274849     -124.825729      -39.042774
 C         -45.650242     -123.283302      -39.134979
 C         -44.518970     -124.242386      -39.435852
 C         -45.528336     -121.984779      -39.903736
 C         -44.533352     -124.522758      -40.960640
 C         -45.622047     -122.270004      -41.359859
 C         -44.469231     -123.243042      -41.725140
 H         -44.589535     -125.226532      -38.799809
 H         -43.650890     -123.654808      -39.060329
 H         -46.424419     -121.525833      -39.546288
 H         -44.723244     -121.344322      -39.566555
 H         -45.405327     -125.097267      -41.299881
 H         -43.713299     -125.127640      -41.191341
 H         -45.390503     -121.423294      -41.861988
 H         -46.558701     -122.551025      -41.700092
 H         -44.791012     -123.505844      -42.747089
 H         -43.408409     -122.814247      -41.744610
