20
 generated by VMD
 C         -37.995159     -107.977600      -37.031898
 N         -38.557167     -108.159882      -38.047623
 H         -41.233620     -108.703171      -35.308342
 H         -37.616531     -107.697937      -36.081367
 C         -41.166092     -109.606735      -34.732075
 C         -40.233799     -110.637123      -34.972363
 C         -42.417683     -109.723145      -33.936291
 C         -40.047047     -111.425667      -33.658329
 C         -42.221031     -110.604858      -32.704800
 C         -41.416809     -111.968369      -33.090858
 H         -39.304501     -110.224731      -35.467949
 H         -40.695042     -111.262741      -35.803055
 H         -42.787319     -108.707520      -33.645931
 H         -43.193817     -110.203178      -34.505077
 H         -39.427639     -110.911385      -32.964500
 H         -39.444046     -112.376472      -33.847164
 H         -43.292896     -110.872780      -32.268818
 H         -41.595573     -110.189041      -31.862545
 H         -41.228706     -112.479897      -32.127415
 H         -41.885715     -112.511230      -33.818134
