20
 generated by VMD
 C         -11.755644      -41.416031       -6.504099
 N         -11.066568      -42.270653       -6.439130
 H         -14.731324      -42.306000       -8.221878
 H         -15.226874      -41.150188       -9.540773
 C         -15.296473      -42.216053       -9.168750
 C         -16.775070      -42.361401       -8.844408
 C         -14.681213      -43.151253      -10.230900
 C         -17.596745      -42.499378      -10.113026
 C         -15.588579      -43.153885      -11.475758
 C         -17.005608      -43.580463      -11.029847
 H         -17.089048      -41.444817       -8.273819
 H         -17.021013      -43.178936       -8.166461
 H         -13.675048      -42.774414      -10.524808
 H         -14.630946      -44.155594       -9.839445
 H         -17.521114      -41.512989      -10.594860
 H         -18.611233      -42.753265       -9.753357
 H         -15.232914      -43.869022      -12.229425
 H         -15.633468      -42.162106      -11.950691
 H         -17.575205      -43.778896      -11.944815
 H         -16.999619      -44.514832      -10.509749
