20
 generated by VMD
 C         -58.165539     -166.637741      -56.125519
 N         -58.082512     -167.400620      -55.203297
 H         -60.700291     -165.520370      -54.975250
 H         -58.196198     -165.982376      -57.004078
 C         -61.532635     -165.678436      -55.641273
 C         -61.814373     -166.858185      -56.461353
 C         -62.520294     -164.564301      -55.538784
 C         -63.381763     -167.248108      -56.416451
 C         -63.965546     -165.052109      -55.512894
 C         -64.208420     -166.045990      -56.587337
 H         -61.315441     -167.789825      -56.308334
 H         -61.577362     -166.723358      -57.598202
 H         -62.254658     -163.833740      -54.749165
 H         -62.390072     -164.069397      -56.559464
 H         -63.613083     -167.825836      -55.451546
 H         -63.555515     -167.879059      -57.380917
 H         -64.560570     -164.186722      -55.725021
 H         -64.326393     -165.465302      -54.375443
 H         -65.226639     -166.387665      -56.505260
 H         -64.225945     -165.572861      -57.526772
