20
 generated by VMD
 C         -48.555229     -135.808716      -46.151112
 N         -47.592903     -136.187912      -45.531570
 H         -51.938442     -135.021332      -45.737846
 H         -49.234524     -135.541229      -46.939072
 C         -51.639820     -135.960526      -45.367382
 C         -52.420589     -137.242233      -45.810966
 C         -51.154804     -135.791504      -44.016575
 C         -51.783207     -138.482162      -45.198380
 C         -50.621857     -137.030472      -43.313255
 C         -51.372795     -138.361069      -43.768646
 H         -52.576790     -137.262466      -46.948410
 H         -53.415443     -137.300919      -45.447430
 H         -50.411201     -134.975494      -43.867073
 H         -51.975533     -135.465790      -43.354347
 H         -50.946789     -138.605057      -45.884350
 H         -52.554344     -139.334000      -45.238647
 H         -50.792171     -136.840576      -42.176846
 H         -49.580582     -137.173096      -43.452229
 H         -50.758942     -139.279556      -43.496983
 H         -52.358936     -138.276657      -43.294807
