20
 generated by VMD
 C          -3.082767      -17.613150        2.635484
 N          -2.975244      -17.957047        1.580480
 H          -5.369237      -19.329002        1.014961
 H          -5.386173      -20.404329       -0.395911
 C          -5.839777      -19.496037        0.035148
 C          -5.579985      -18.174591       -0.756167
 C          -7.354920      -19.605530        0.264801
 C          -6.335287      -17.963064       -2.047873
 C          -8.113227      -19.457832       -1.093452
 C          -7.860452      -18.085096       -1.791348
 H          -4.532282      -18.147085       -0.974828
 H          -5.818547      -17.270369       -0.059973
 H          -7.567115      -20.581991        0.758126
 H          -7.710182      -18.677233        0.883887
 H          -6.077930      -18.781864       -2.689370
 H          -6.078312      -16.930389       -2.433170
 H          -9.160835      -19.587564       -0.936276
 H          -7.685673      -20.258026       -1.682719
 H          -8.380929      -17.958992       -2.759165
 H          -8.158664      -17.287514       -1.109836
