20
 generated by VMD
 C         -39.830963     -100.644241      -30.890341
 N         -40.418415      -99.948151      -31.603224
 H         -37.461651     -102.572113      -30.726538
 H         -39.076900     -101.062653      -30.146378
 C         -36.602413     -101.968292      -31.038374
 C         -36.540077     -101.432755      -32.505291
 C         -35.538708     -101.673370      -30.138504
 C         -36.461773      -99.955589      -32.240402
 C         -35.474545     -100.154945      -29.941458
 C         -35.247700      -99.626625      -31.304173
 H         -37.429592     -101.795555      -33.020596
 H         -35.658764     -101.863609      -33.012238
 H         -35.748528     -102.329964      -29.290743
 H         -34.633602     -102.116524      -30.655334
 H         -37.392384      -99.456154      -31.786852
 H         -36.314026      -99.556778      -33.296951
 H         -34.631512      -99.931953      -29.196001
 H         -36.371132      -99.768143      -29.509512
 H         -34.998413      -98.591003      -31.191622
 H         -34.342251     -100.012703      -31.833830
