20
 generated by VMD
 C         -49.683620     -131.777496      -46.605755
 N         -50.108589     -132.547226      -47.280266
 H         -47.539673     -133.409042      -43.937866
 H         -49.066128     -130.996246      -46.154190
 C         -48.598125     -133.434692      -43.624847
 C         -49.400459     -134.658737      -44.036594
 C         -49.111603     -132.684296      -42.474400
 C         -49.534489     -135.671158      -42.817490
 C         -49.233814     -133.607040      -41.252789
 C         -49.995693     -134.833969      -41.537910
 H         -49.034752     -135.259659      -44.931480
 H         -50.398624     -134.368881      -44.283298
 H         -48.369572     -131.855591      -42.178890
 H         -50.050926     -132.247665      -42.788303
 H         -48.561001     -136.223862      -42.759167
 H         -50.347477     -136.404739      -42.899475
 H         -49.562126     -132.994431      -40.473866
 H         -48.242447     -133.914276      -40.841980
 H         -49.882423     -135.505417      -40.610085
 H         -51.002533     -134.493790      -41.763020
