20
 generated by VMD
 C         -58.642269     -158.891190      -58.178062
 N         -58.850430     -159.662094      -57.264881
 H         -59.025368     -160.572922      -54.744495
 H         -58.416336     -158.130859      -58.965420
 C         -59.442837     -161.244751      -53.978561
 C         -58.734493     -161.479248      -52.636646
 C         -60.747383     -161.993179      -54.246380
 C         -59.583115     -161.518295      -51.411057
 C         -61.625423     -161.785110      -53.087471
 C         -60.950527     -162.219299      -51.720829
 H         -58.066498     -160.590546      -52.572090
 H         -58.210880     -162.392975      -52.635529
 H         -61.151608     -161.633270      -55.176300
 H         -60.550461     -163.154068      -54.414040
 H         -59.583759     -160.535629      -50.976852
 H         -59.030342     -162.311127      -50.780327
 H         -62.603630     -162.244644      -53.094509
 H         -61.891968     -160.754547      -53.012138
 H         -61.643394     -161.994110      -50.887390
 H         -60.747810     -163.294922      -51.939205
