20
 generated by VMD
 C         -22.443825      -67.721497      -16.211451
 N         -21.311615      -67.658371      -15.920286
 H         -24.067837      -66.042030      -17.772791
 H         -23.308306      -67.754936      -16.721167
 C         -24.493149      -66.381355      -18.736479
 C         -23.857752      -66.893906      -20.001980
 C         -26.050993      -66.515305      -18.503103
 C         -24.458174      -68.294777      -20.418804
 C         -26.573372      -67.830032      -18.948515
 C         -25.998867      -68.309616      -20.379774
 H         -22.851788      -67.005859      -19.834255
 H         -24.144506      -66.236496      -20.850378
 H         -26.316113      -66.264252      -17.419155
 H         -26.562805      -65.614510      -18.978048
 H         -23.954863      -68.941910      -19.674778
 H         -24.033684      -68.649574      -21.384903
 H         -27.649889      -67.886208      -19.102022
 H         -26.380699      -68.563774      -18.147020
 H         -26.561911      -69.230057      -20.612173
 H         -26.227236      -67.445328      -21.032988
