20
 generated by VMD
 C         -70.085869     -183.331360      -65.515465
 N         -69.465294     -182.455170      -65.980927
 H         -67.733681     -185.080338      -62.925056
 H         -70.654648     -184.145050      -65.144646
 C         -67.871796     -184.290833      -62.206009
 C         -68.033112     -184.633530      -60.799557
 C         -68.050797     -182.840393      -62.638248
 C         -67.357346     -183.610657      -59.847881
 C         -67.123543     -181.880051      -61.795246
 C         -67.307983     -182.055481      -60.271732
 H         -67.724731     -185.673004      -60.627728
 H         -69.111145     -184.477066      -60.861561
 H         -67.762039     -182.575897      -63.701027
 H         -69.100952     -182.626480      -62.603523
 H         -66.344887     -184.003342      -59.633713
 H         -68.023956     -183.756989      -58.921997
 H         -67.317146     -180.802536      -61.981903
 H         -66.138100     -181.977280      -62.227867
 H         -66.492683     -181.518753      -59.599888
 H         -68.280853     -181.719238      -59.914497
