20
 generated by VMD
 C         -12.860836      -27.163630       -2.317117
 N         -11.967148      -27.571913       -1.809600
 H         -10.419471      -26.375731       -4.677025
 H          -8.881431      -26.104904       -5.378757
 C          -9.354188      -26.445866       -4.477412
 C          -9.020534      -27.908321       -4.393728
 C          -8.809594      -25.656429       -3.328604
 C          -7.548898      -28.197365       -4.343363
 C          -7.261379      -25.941168       -3.091596
 C          -6.897386      -27.415972       -3.228669
 H          -9.553070      -28.580261       -5.179327
 H          -9.512119      -28.316568       -3.536217
 H          -9.037233      -24.575523       -3.435893
 H          -9.313514      -25.950394       -2.418497
 H          -7.093585      -27.875816       -5.338185
 H          -7.263129      -29.312042       -4.323112
 H          -6.892045      -25.394339       -2.219987
 H          -6.815629      -25.382187       -3.927976
 H          -5.800678      -27.550337       -3.295064
 H          -7.213699      -27.952662       -2.370498
