20
 generated by VMD
 C         -60.271587     -170.655502      -55.178173
 N         -59.198254     -171.172028      -55.272827
 H         -63.408894     -170.785583      -56.863430
 H         -61.240429     -170.174850      -55.231915
 C         -63.354191     -169.677887      -56.908985
 C         -62.426693     -168.811844      -57.582127
 C         -64.597778     -168.889481      -56.415623
 C         -62.967548     -167.878723      -58.709194
 C         -65.218353     -168.010666      -57.531654
 C         -64.228668     -167.146317      -58.372398
 H         -61.604805     -169.305038      -58.037373
 H         -61.931915     -168.246323      -56.650852
 H         -65.456078     -169.400040      -56.099380
 H         -64.319450     -168.190002      -55.622643
 H         -63.203480     -168.486496      -59.605259
 H         -62.140686     -167.221573      -58.913425
 H         -66.000877     -167.274338      -57.060902
 H         -65.799149     -168.745667      -58.202908
 H         -64.745842     -166.683777      -59.284863
 H         -64.004097     -166.275070      -57.752831
