20
 generated by VMD
 C          -6.859461      -23.314280        2.935191
 N          -6.902031      -22.599068        2.065024
 H          -8.032700      -22.813692       -0.652889
 H          -8.993279      -22.248747       -1.954580
 C          -7.994710      -22.265020       -1.606086
 C          -7.148012      -23.032118       -2.605655
 C          -7.571976      -20.839792       -1.365209
 C          -7.004858      -22.327925       -3.964420
 C          -7.504812      -20.106199       -2.727363
 C          -6.579335      -20.843037       -3.744285
 H          -7.541467      -23.991678       -2.781276
 H          -6.094833      -23.029531       -2.149379
 H          -8.205199      -20.419621       -0.579325
 H          -6.580223      -20.834864       -0.874168
 H          -7.992002      -22.350321       -4.341180
 H          -6.364965      -22.880045       -4.633317
 H          -7.234983      -19.085766       -2.498956
 H          -8.483691      -20.009937       -3.181484
 H          -6.559818      -20.313519       -4.662748
 H          -5.581836      -20.925011       -3.379835
