20
 generated by VMD
 C         -46.711174     -124.940071      -38.206154
 N         -47.287163     -124.588425      -37.242252
 H         -44.730919     -121.990379      -37.625843
 H         -46.324978     -125.478836      -39.048882
 C         -44.799805     -122.281044      -38.721306
 C         -43.498592     -122.600517      -39.520802
 C         -45.919346     -121.506790      -39.413448
 C         -43.825668     -122.982529      -40.949203
 C         -46.152912     -121.981346      -40.752232
 C         -44.858547     -122.021385      -41.631203
 H         -42.871899     -123.321556      -38.863712
 H         -42.893341     -121.725517      -39.698853
 H         -46.806938     -121.610680      -38.866508
 H         -45.621292     -120.414024      -39.395248
 H         -44.194233     -124.051430      -40.947643
 H         -43.017170     -123.028481      -41.709167
 H         -46.927040     -121.473091      -41.354424
 H         -46.460064     -123.110626      -40.663052
 H         -45.022873     -122.335449      -42.692417
 H         -44.428894     -121.036690      -41.603619
