20
 generated by VMD
 C         -41.039940     -102.277367      -34.791523
 N         -41.486416     -101.967735      -35.804371
 H         -39.685947     -104.786018      -32.302105
 H         -40.976620     -102.523773      -33.711945
 C         -38.644009     -104.645210      -31.938446
 C         -37.692745     -103.989120      -32.804024
 C         -38.278542     -105.671364      -30.923698
 C         -36.376453     -103.534424      -32.076756
 C         -36.953152     -105.391068      -30.317638
 C         -35.882183     -104.890327      -31.441816
 H         -37.924736     -103.097855      -33.309933
 H         -37.497368     -104.780746      -33.581741
 H         -39.018139     -105.696182      -30.181564
 H         -38.263042     -106.696335      -31.492264
 H         -36.622177     -102.704590      -31.334776
 H         -35.705463     -103.057884      -32.860237
 H         -36.511806     -106.194618      -29.690056
 H         -37.233345     -104.566772      -29.623661
 H         -34.937107     -104.681053      -30.810183
 H         -35.714779     -105.732170      -32.114616
