20
 generated by VMD
 C         -30.793488      -75.063042      -22.692225
 N         -31.261133      -75.504974      -21.714880
 H         -28.824862      -77.055702      -21.893667
 H         -30.518551      -74.502800      -23.508450
 C         -27.805387      -77.046257      -21.476368
 C         -26.694288      -77.815422      -22.120815
 C         -27.415857      -75.863205      -20.652809
 C         -25.784140      -76.826035      -23.000536
 C         -26.582882      -74.878029      -21.404381
 C         -25.373098      -75.573280      -22.195089
 H         -27.031473      -78.596672      -22.810081
 H         -26.174433      -78.344971      -21.269211
 H         -28.354208      -75.259003      -20.283457
 H         -26.881611      -76.160294      -19.689253
 H         -26.405706      -76.495499      -23.794046
 H         -24.898949      -77.305550      -23.412096
 H         -26.216486      -74.032265      -20.774553
 H         -27.176197      -74.356079      -22.112959
 H         -24.756762      -74.892891      -22.852221
 H         -24.660387      -75.930885      -21.474098
