20
 generated by VMD
 C         -10.486388      -33.295429       -9.482544
 N         -10.962914      -32.539333       -8.854565
 H         -11.975686      -36.262482       -7.943409
 H         -12.476381      -35.657936       -6.351363
 C         -12.504644      -36.509750       -7.014656
 C         -11.834877      -37.779472       -6.442399
 C         -13.974337      -36.828091       -7.389616
 C         -12.556775      -38.264301       -5.190673
 C         -14.723227      -37.144836       -6.070473
 C         -14.104795      -38.343597       -5.353688
 H         -10.857026      -37.399040       -6.191185
 H         -11.735217      -38.539997       -7.267092
 H         -14.442646      -35.947220       -7.806334
 H         -14.133612      -37.641911       -8.120618
 H         -12.416760      -37.586567       -4.313832
 H         -12.212048      -39.344742       -4.960090
 H         -15.776797      -37.391167       -6.293199
 H         -14.815751      -36.249275       -5.492931
 H         -14.520559      -38.687298       -4.446087
 H         -14.298223      -39.190163       -6.043028
