20
 generated by VMD
 C         -70.720795     -181.424179      -64.179085
 N         -70.460297     -182.327332      -63.507462
 H         -68.218567     -181.290543      -61.147263
 H         -70.984406     -180.500992      -64.736954
 C         -67.369911     -180.748383      -60.775349
 C         -66.239594     -181.707840      -60.422100
 C         -67.318161     -179.318939      -60.499847
 C         -64.982277     -181.156906      -60.837845
 C         -65.994118     -178.727829      -60.826771
 C         -64.853577     -179.685165      -60.319687
 H         -66.331200     -182.752960      -60.883217
 H         -65.986671     -181.779907      -59.318073
 H         -68.121811     -178.898407      -61.102436
 H         -67.483391     -179.123856      -59.408314
 H         -64.800262     -181.227539      -61.890312
 H         -64.078537     -181.677444      -60.545597
 H         -66.011871     -177.752563      -60.277672
 H         -65.853226     -178.531174      -61.875496
 H         -63.901127     -179.166214      -60.565674
 H         -64.871971     -179.820557      -59.242924
