20
 generated by VMD
 C          -2.046644      -16.837919        2.858085
 N          -2.324689      -16.118431        2.056364
 H          -4.455345      -15.862181        0.171459
 H          -4.361831      -17.041597       -1.118330
 C          -5.035755      -16.589975       -0.333737
 C          -6.270183      -15.936921       -1.011190
 C          -5.386179      -17.575287        0.784946
 C          -7.461611      -16.949232       -1.241739
 C          -6.415090      -18.617178        0.286565
 C          -7.657213      -17.967342       -0.105340
 H          -6.026898      -15.558000       -2.043506
 H          -6.553729      -15.116505       -0.369365
 H          -4.559648      -18.180389        0.966893
 H          -5.785522      -17.051481        1.605314
 H          -7.126191      -17.603813       -2.099357
 H          -8.422697      -16.486450       -1.507835
 H          -6.531991      -19.382534        1.043529
 H          -5.923542      -19.086580       -0.557072
 H          -8.457995      -18.655415       -0.346156
 H          -8.074986      -17.378284        0.729005
