20
 generated by VMD
 C         -47.708187     -138.082245      -45.854847
 N         -47.233246     -137.819489      -46.911308
 H         -50.390682     -137.582336      -44.531342
 H         -48.026772     -138.210815      -44.827297
 C         -51.273659     -138.149384      -44.784401
 C         -51.415264     -138.691605      -46.192398
 C         -52.535175     -137.765488      -44.174061
 C         -52.520264     -139.698257      -46.298512
 C         -53.590729     -138.823456      -44.244823
 C         -53.847366     -139.317169      -45.655788
 H         -50.481758     -139.139877      -46.670300
 H         -51.621464     -137.799896      -46.756901
 H         -52.268986     -137.356033      -43.173599
 H         -52.889019     -136.833847      -44.630268
 H         -52.216465     -140.796021      -45.938770
 H         -52.669670     -139.970642      -47.382511
 H         -54.538315     -138.674438      -43.773502
 H         -53.324917     -139.673798      -43.595524
 H         -54.579338     -140.263474      -45.730362
 H         -54.302437     -138.544312      -46.378410
