20
 generated by VMD
 C         -70.077499     -181.246231      -63.272629
 N         -71.214417     -181.619537      -63.286610
 H         -67.850250     -181.644028      -61.104126
 H         -69.091476     -180.867325      -63.143250
 C         -66.988243     -180.940765      -60.982452
 C         -65.738022     -181.325577      -60.348133
 C         -67.340889     -179.461884      -60.665176
 C         -64.541077     -180.353363      -60.775768
 C         -66.154747     -178.504959      -60.782978
 C         -64.813438     -178.926880      -60.237293
 H         -65.432854     -182.351791      -60.636658
 H         -65.900482     -181.558502      -59.267597
 H         -68.210625     -179.246979      -61.358452
 H         -67.780350     -179.364319      -59.566956
 H         -64.562210     -180.246994      -61.928757
 H         -63.494259     -180.534515      -60.422791
 H         -66.460831     -177.562729      -60.306763
 H         -66.084778     -178.156815      -61.811077
 H         -64.049576     -178.293777      -60.713333
 H         -64.759323     -178.838562      -59.076408
