20
 generated by VMD
 C         -19.199337      -63.388020      -16.739367
 N         -20.191288      -62.938015      -17.059996
 H         -22.585590      -64.329323      -17.234337
 H         -18.243118      -64.035553      -16.639210
 C         -23.700583      -64.254646      -17.407421
 C         -24.300232      -64.074440      -18.772860
 C         -24.600357      -65.086754      -16.448772
 C         -24.712473      -65.485115      -19.339529
 C         -24.926268      -66.468613      -17.014933
 C         -25.505072      -66.447380      -18.405163
 H         -23.666023      -63.546284      -19.394976
 H         -25.165577      -63.442383      -18.584389
 H         -24.190809      -65.247925      -15.465308
 H         -25.570314      -64.488159      -16.145544
 H         -23.800800      -65.908897      -19.693081
 H         -25.371048      -65.134689      -20.147707
 H         -25.555943      -66.997620      -16.310658
 H         -24.003716      -67.080460      -17.030323
 H         -25.495886      -67.425201      -18.790003
 H         -26.576292      -66.095139      -18.456251
