20
 generated by VMD
 C         -29.440155      -90.717201      -25.083170
 N         -28.986855      -91.765038      -25.091228
 H         -32.102924      -91.157715      -27.588835
 H         -29.967817      -89.743599      -24.959110
 C         -33.169685      -90.791550      -27.731827
 C         -34.359192      -91.577477      -27.474705
 C         -33.084175      -89.572937      -28.541414
 C         -35.549389      -90.700378      -27.373899
 C         -34.394680      -88.753906      -28.677607
 C         -35.623058      -89.644943      -28.544340
 H         -34.178837      -92.171852      -26.528921
 H         -34.492676      -92.393166      -28.240425
 H         -32.330341      -88.932259      -28.071072
 H         -32.643726      -89.901649      -29.505466
 H         -35.593571      -90.030968      -26.568943
 H         -36.441029      -91.312859      -27.407360
 H         -34.396202      -88.343498      -29.700724
 H         -34.319866      -87.840218      -28.087086
 H         -36.497616      -89.027328      -28.629053
 H         -35.838749      -90.248840      -29.428802
