20
 generated by VMD
 C         -58.340935     -159.049210      -57.967285
 N         -59.295044     -158.842163      -57.418419
 H         -59.571041     -159.753601      -54.233440
 H         -57.457748     -159.212067      -58.518627
 C         -59.474056     -160.750717      -53.884880
 C         -58.536045     -160.865326      -52.685280
 C         -60.691490     -161.705734      -54.037888
 C         -59.335369     -161.128464      -51.409805
 C         -61.445572     -161.661255      -52.653889
 C         -60.498997     -162.165634      -51.542007
 H         -57.882198     -159.932144      -52.484512
 H         -57.915676     -161.760605      -52.869041
 H         -61.270432     -161.446655      -54.839413
 H         -60.423714     -162.783508      -54.258286
 H         -59.669964     -160.214966      -51.058922
 H         -58.588032     -161.504745      -50.621990
 H         -62.297379     -162.346054      -52.688828
 H         -61.926266     -160.718262      -52.511234
 H         -61.015877     -162.306091      -50.554733
 H         -60.059502     -163.106934      -51.892025
