20
 generated by VMD
 C         -45.784935     -123.748367      -35.582062
 N         -46.344051     -124.742317      -35.427361
 H         -44.889156     -122.293945      -38.275757
 H         -45.178001     -122.880028      -35.514809
 C         -44.664253     -121.501526      -39.022514
 C         -43.318478     -121.396980      -39.685177
 C         -45.787823     -120.723480      -39.515472
 C         -43.432270     -121.363182      -41.211018
 C         -45.887482     -120.592216      -41.059135
 C         -44.497772     -120.271553      -41.619431
 H         -42.745964     -122.317917      -39.397724
 H         -42.824512     -120.471619      -39.281910
 H         -46.670994     -121.220665      -39.154785
 H         -45.990307     -119.720840      -39.021755
 H         -43.741096     -122.350311      -41.635792
 H         -42.386986     -120.949364      -41.555237
 H         -46.650921     -119.654640      -41.268089
 H         -46.360588     -121.466484      -41.654766
 H         -44.585361     -120.266434      -42.748798
 H         -44.133354     -119.297813      -41.325294
