20
 generated by VMD
 C         -23.216419      -53.454472      -13.413574
 N         -23.398787      -52.664986      -14.308791
 H         -20.502604      -55.063133      -13.964181
 H         -23.040180      -53.892441      -12.484506
 C         -19.521799      -54.890034      -13.969323
 C         -19.088566      -53.515446      -13.751512
 C         -18.540724      -55.985500      -14.360976
 C         -17.727747      -53.310123      -13.050858
 C         -17.509056      -55.881783      -13.264568
 C         -16.858011      -54.452717      -13.411427
 H         -19.911024      -52.948097      -13.353227
 H         -19.064131      -52.973476      -14.694185
 H         -19.027601      -56.928833      -14.283779
 H         -18.055979      -55.915115      -15.334210
 H         -17.783413      -53.322800      -11.937895
 H         -17.255894      -52.367153      -13.313964
 H         -16.782806      -56.654739      -13.432813
 H         -17.931265      -55.948742      -12.222867
 H         -15.967314      -54.388634      -12.735093
 H         -16.424492      -54.305077      -14.404390
