20
 generated by VMD
 C         -31.830688      -75.919106      -24.074810
 N         -31.139067      -76.332634      -24.967228
 H         -29.677534      -77.925842      -22.360706
 H         -32.069218      -75.544029      -23.175331
 C         -28.574234      -77.986359      -22.143946
 C         -27.636072      -78.290047      -23.239477
 C         -28.111492      -78.305840      -20.782835
 C         -26.296787      -77.705841      -22.843332
 C         -26.817560      -77.676834      -20.461344
 C         -25.812819      -78.143898      -21.439276
 H         -27.937923      -77.878654      -24.129623
 H         -27.632393      -79.319008      -23.457901
 H         -28.820068      -77.851944      -19.972626
 H         -28.107018      -79.394188      -20.737186
 H         -26.309214      -76.601830      -22.997866
 H         -25.519205      -77.974472      -23.636189
 H         -26.485691      -78.034149      -19.458227
 H         -26.893236      -76.500381      -20.455013
 H         -24.804312      -77.782997      -21.225353
 H         -25.861448      -79.204765      -21.524002
