20
 generated by VMD
 C          -1.640786       -8.692531        0.311174
 N          -2.376219       -9.193267       -0.372712
 H          -2.654649      -10.277474        2.482346
 H          -1.942924      -11.525096        3.677320
 C          -2.802538      -11.259819        3.045522
 C          -2.905785      -12.283863        2.005966
 C          -4.137510      -11.157923        3.843233
 C          -3.247236      -13.670841        2.551579
 C          -4.586554      -12.500950        4.376828
 C          -4.547226      -13.653613        3.385927
 H          -1.969591      -12.424077        1.506148
 H          -3.694812      -12.067418        1.257790
 H          -3.930997      -10.468543        4.698105
 H          -4.958469      -10.585918        3.246377
 H          -2.445899      -14.031370        3.238571
 H          -3.408458      -14.379841        1.742053
 H          -5.575159      -12.477206        4.759983
 H          -3.955563      -12.729394        5.210103
 H          -4.820413      -14.599710        3.835427
 H          -5.400266      -13.386716        2.805073
