20
 generated by VMD
 C         -30.537033      -92.805199      -26.214262
 N         -31.115381      -92.550438      -25.267435
 H         -32.763142      -90.412621      -26.271702
 H         -30.098457      -93.017296      -27.180763
 C         -33.333214      -90.588913      -27.194403
 C         -34.153851      -91.902069      -27.162878
 C         -33.178226      -89.896667      -28.509407
 C         -35.370674      -91.776016      -28.060465
 C         -34.525665      -89.758858      -29.255491
 C         -35.131641      -91.109406      -29.422565
 H         -34.283405      -92.175339      -26.166536
 H         -33.536720      -92.650368      -27.673893
 H         -32.689564      -88.909561      -28.391657
 H         -32.461613      -90.377365      -29.171104
 H         -36.107452      -91.023636      -27.651815
 H         -35.921810      -92.701599      -28.100248
 H         -34.416538      -89.233612      -30.202707
 H         -35.058495      -89.082367      -28.593437
 H         -35.965160      -91.000160      -30.175470
 H         -34.412392      -91.762726      -29.904499
