20
 generated by VMD
 C         -31.714025      -78.924568      -26.458231
 N         -30.984970      -78.109955      -26.805565
 H         -28.688816      -80.833473      -25.224098
 H         -32.239319      -79.854279      -26.290594
 C         -28.896458      -81.135361      -24.124434
 C         -27.625866      -81.156662      -23.300516
 C         -29.889479      -82.228897      -23.813374
 C         -27.957470      -81.226578      -21.815670
 C         -30.226152      -82.233749      -22.379738
 C         -28.999025      -82.257057      -21.534243
 H         -27.036318      -80.231735      -23.658533
 H         -27.114168      -82.018295      -23.743633
 H         -30.815411      -82.117943      -24.421505
 H         -29.382351      -83.127296      -24.158886
 H         -28.376188      -80.274147      -21.589933
 H         -27.101038      -81.424088      -21.162615
 H         -30.737614      -83.216965      -22.069128
 H         -30.935019      -81.459816      -22.306751
 H         -29.362185      -82.142944      -20.471489
 H         -28.522703      -83.287392      -21.715279
