20
 generated by VMD
 C         -59.834106     -157.030502      -56.697090
 N         -60.958416     -156.606293      -56.644722
 H         -59.663174     -157.494675      -53.415405
 H         -58.767105     -157.339951      -56.773582
 C         -59.070278     -157.857361      -52.662251
 C         -57.827370     -157.108398      -52.109486
 C         -59.094971     -159.352890      -52.512169
 C         -57.268990     -157.659897      -50.833290
 C         -58.498508     -159.812943      -51.124191
 C         -57.161961     -159.117386      -50.783337
 H         -58.097614     -156.014343      -52.241127
 H         -57.037682     -157.305527      -52.848724
 H         -60.105953     -159.640732      -52.637714
 H         -58.451199     -159.881256      -53.209393
 H         -57.957817     -157.502380      -50.050259
 H         -56.311798     -157.170090      -50.609833
 H         -58.447998     -160.967163      -51.138695
 H         -59.336693     -159.532410      -50.359249
 H         -56.794086     -159.401611      -49.851955
 H         -56.304108     -159.491699      -51.450905
