20
 generated by VMD
 C          -6.041636      -22.199612        1.956367
 N          -6.527665      -22.930927        2.627894
 H          -5.370662      -19.258982       -0.643601
 H          -6.485984      -20.330690       -0.085632
 C          -6.154111      -19.914221       -1.078277
 C          -5.682996      -21.101059       -1.958686
 C          -7.149705      -19.029488       -1.867384
 C          -6.906282      -21.945040       -2.494656
 C          -8.356562      -19.874807       -2.396713
 C          -7.923661      -21.068945       -3.243369
 H          -4.994010      -21.714178       -1.347240
 H          -5.162610      -20.746620       -2.833261
 H          -7.689680      -18.272720       -1.257086
 H          -6.668695      -18.553782       -2.723764
 H          -7.429684      -22.401125       -1.630952
 H          -6.548887      -22.770090       -3.126391
 H          -9.038716      -19.298704       -3.005962
 H          -8.962445      -20.203552       -1.517587
 H          -8.837417      -21.630148       -3.592141
 H          -7.419552      -20.596497       -4.122736
