20
 generated by VMD
 C         -11.740964      -26.593216       -0.464185
 N         -12.667904      -26.342352       -1.011383
 H         -10.238978      -26.245338       -3.680760
 H          -9.421281      -25.557985       -4.979440
 C          -9.229489      -26.073704       -4.045521
 C          -8.440269      -27.401482       -4.258921
 C          -8.580221      -25.124462       -3.055392
 C          -6.898401      -27.159206       -4.504653
 C          -7.140546      -24.812229       -3.471809
 C          -6.344686      -26.154139       -3.459978
 H          -8.823212      -27.914539       -5.121389
 H          -8.593022      -28.053535       -3.346313
 H          -9.166823      -24.184998       -3.080241
 H          -8.628782      -25.428934       -1.993177
 H          -6.782258      -26.729334       -5.475683
 H          -6.364953      -28.092804       -4.440991
 H          -6.774556      -24.154247       -2.664999
 H          -7.082901      -24.336922       -4.455456
 H          -5.340245      -25.814766       -3.733585
 H          -6.380100      -26.578354       -2.415014
