20
 generated by VMD
 C         -38.005421     -114.518112      -35.398602
 N         -38.843342     -115.192902      -34.929249
 H         -41.320621     -115.268616      -36.730461
 H         -37.232239     -113.703941      -35.624435
 C         -42.447948     -115.251282      -36.880447
 C         -42.837334     -115.096024      -38.333458
 C         -43.539196     -114.963646      -35.834518
 C         -44.139408     -115.895699      -38.654842
 C         -44.755379     -115.812714      -36.138832
 C         -45.263939     -115.624550      -37.573963
 H         -42.130051     -115.600861      -39.019238
 H         -42.905544     -113.996864      -38.585861
 H         -43.166565     -115.230309      -34.753784
 H         -43.661934     -113.830200      -35.701298
 H         -43.942974     -117.000191      -38.581673
 H         -44.574390     -115.687538      -39.583916
 H         -45.449432     -115.649345      -35.259518
 H         -44.453342     -116.897682      -35.987240
 H         -46.077194     -116.264114      -37.903244
 H         -45.516125     -114.420837      -37.712959
