20
 generated by VMD
 C         -11.319384      -25.927193       -0.853220
 N         -11.043424      -24.890419       -0.508321
 H          -7.480051      -25.874105       -1.010793
 H          -8.954293      -25.450815       -1.951689
 C          -7.830320      -25.461330       -1.916885
 C          -7.405747      -26.346033       -3.091128
 C          -7.353916      -24.040453       -2.021928
 C          -7.679411      -25.629679       -4.401109
 C          -7.619563      -23.392588       -3.377319
 C          -7.146593      -24.265568       -4.507175
 H          -7.885515      -27.350462       -2.979916
 H          -6.290460      -26.693621       -2.969556
 H          -7.741805      -23.428234       -1.175316
 H          -6.303382      -23.942469       -1.841126
 H          -8.729066      -25.669672       -4.722844
 H          -7.226053      -26.165724       -5.246878
 H          -7.043849      -22.479965       -3.390203
 H          -8.669538      -23.151255       -3.549050
 H          -7.430619      -23.804638       -5.462125
 H          -6.078154      -24.295958       -4.559855
