20
 generated by VMD
 C          -1.404205      -10.463463        1.187446
 N          -0.827557      -11.331817        1.495472
 H          -3.819013      -13.293379        0.015791
 H          -5.181265      -12.637771        0.820351
 C          -4.583930      -13.542575        0.760858
 C          -3.791012      -13.867785        2.117433
 C          -5.418617      -14.687827        0.313731
 C          -4.647609      -14.556130        3.181503
 C          -6.336290      -15.225871        1.387096
 C          -5.515585      -15.602221        2.595165
 H          -3.345726      -12.955452        2.442309
 H          -2.940255      -14.488094        1.792398
 H          -6.069304      -14.488159       -0.565146
 H          -4.780274      -15.564254       -0.041333
 H          -5.208517      -13.706115        3.595678
 H          -4.038402      -14.880998        4.002783
 H          -6.890253      -16.056522        0.958016
 H          -7.118266      -14.496687        1.562404
 H          -6.180496      -16.086157        3.364864
 H          -4.854817      -16.426460        2.236554
