20
 generated by VMD
 C         -13.764768      -45.439610       -5.644179
 N         -14.334336      -45.170464       -6.551455
 H         -14.995999      -44.206203       -9.181335
 H         -14.370108      -44.001411      -10.706714
 C         -15.309565      -44.299118      -10.204413
 C         -16.430422      -43.269775      -10.550145
 C         -15.715707      -45.686573      -10.545924
 C         -17.068928      -43.335922      -11.925735
 C         -16.222462      -45.626015      -12.014498
 C         -17.402140      -44.697567      -12.381460
 H         -16.027767      -42.282066      -10.313616
 H         -17.342739      -43.313698       -9.875029
 H         -14.917021      -46.442261      -10.456140
 H         -16.477543      -46.129341       -9.892956
 H         -16.325209      -42.963840      -12.629001
 H         -17.921343      -42.643288      -11.983633
 H         -16.481102      -46.616985      -12.296935
 H         -15.311068      -45.330048      -12.644680
 H         -17.514599      -44.646759      -13.438843
 H         -18.317142      -45.074379      -11.962740
