20
 generated by VMD
 C         -61.492775     -155.168381      -53.561291
 N         -62.081383     -155.385788      -54.493763
 H         -58.397915     -154.895416      -52.143860
 H         -60.962658     -154.799744      -52.687656
 C         -57.421047     -154.969574      -51.651173
 C         -57.339603     -154.399429      -50.242016
 C         -56.215969     -155.039093      -52.539700
 C         -56.054157     -154.838333      -49.413227
 C         -55.031158     -155.389267      -51.670479
 C         -54.775070     -154.645798      -50.355869
 H         -58.103401     -154.723572      -49.596436
 H         -57.547565     -153.314133      -50.389851
 H         -56.196270     -155.713943      -53.368534
 H         -56.229961     -154.016968      -52.937550
 H         -56.138069     -155.915344      -49.026608
 H         -55.917679     -154.390366      -48.434742
 H         -54.101826     -155.458176      -52.182468
 H         -55.180820     -156.500824      -51.413628
 H         -53.850075     -155.030518      -49.918720
 H         -54.644642     -153.550095      -50.696228
