20
 generated by VMD
 C         -24.807133      -70.263992      -16.440519
 N         -24.893930      -70.859726      -15.437402
 H         -23.650690      -68.088104      -18.886173
 H         -24.509832      -69.796013      -17.319914
 C         -24.352278      -68.452126      -19.615541
 C         -23.745750      -69.153931      -20.819979
 C         -25.809095      -68.070808      -19.637247
 C         -24.835403      -70.095848      -21.381628
 C         -26.713219      -69.169594      -20.210243
 C         -26.257198      -69.606773      -21.583097
 H         -22.976263      -69.895081      -20.501591
 H         -23.481859      -68.363731      -21.443048
 H         -26.115274      -67.905716      -18.566256
 H         -26.074705      -67.137932      -20.125229
 H         -25.000185      -70.889862      -20.610586
 H         -24.503510      -70.713303      -22.236237
 H         -27.750582      -68.886162      -20.205391
 H         -26.556147      -69.986786      -19.517948
 H         -26.855547      -70.458626      -21.946661
 H         -26.122543      -68.800697      -22.316267
