20
 generated by VMD
 C         -38.591488     -109.821350      -36.114441
 N         -37.785606     -109.019394      -35.935646
 H         -41.984055     -110.719505      -37.200691
 H         -39.493999     -110.498680      -36.166843
 C         -41.986652     -111.107460      -36.186226
 C         -41.855927     -112.623756      -36.270836
 C         -42.318176     -110.359581      -34.992569
 C         -41.460690     -113.212563      -34.924755
 C         -41.704132     -110.970520      -33.705109
 C         -41.943520     -112.571709      -33.533360
 H         -41.117939     -112.871597      -37.023781
 H         -42.740593     -113.066444      -36.794514
 H         -41.945343     -109.272331      -35.100906
 H         -43.409088     -110.507217      -34.857395
 H         -40.343426     -113.250328      -35.011955
 H         -41.784653     -114.273781      -34.957829
 H         -42.168339     -110.502701      -32.848804
 H         -40.630264     -110.829613      -33.734272
 H         -41.334198     -112.874619      -32.779953
 H         -43.053387     -112.701668      -33.356445
