20
 generated by VMD
 C         -73.875359     -201.486130      -65.420097
 N         -72.911156     -201.034134      -65.858353
 H         -75.210373     -198.132614      -66.958435
 H         -74.714859     -202.206696      -65.211380
 C         -74.782997     -197.683228      -67.841789
 C         -74.853676     -196.207733      -68.046967
 C         -74.409081     -198.577255      -69.084961
 C         -73.485603     -195.675873      -68.485474
 C         -73.575417     -197.704742      -69.998505
 C         -72.660683     -196.705215      -69.151283
 H         -75.375031     -195.657867      -67.168396
 H         -75.546486     -195.957291      -68.791260
 H         -73.905098     -199.557755      -68.814079
 H         -75.444817     -198.917816      -69.468735
 H         -72.851677     -195.459808      -67.619553
 H         -73.490898     -194.761658      -69.061531
 H         -74.184692     -197.136230      -70.688538
 H         -72.854660     -198.436951      -70.473686
 H         -72.061028     -197.147675      -68.467422
 H         -71.999367     -196.193481      -69.957748
