20
 generated by VMD
 C         -38.770489      -99.098358      -27.091833
 N         -37.767830      -99.204048      -26.513109
 H         -37.019661      -97.437180      -30.098598
 H         -39.619129      -98.985924      -27.818506
 C         -36.112171      -96.922226      -30.513004
 C         -35.579346      -97.485191      -31.807476
 C         -35.308853      -96.292976      -29.424730
 C         -34.300186      -96.837288      -32.323078
 C         -34.240063      -95.447395      -30.126232
 C         -33.429016      -96.177307      -31.097816
 H         -36.407089      -97.381462      -32.537960
 H         -35.364552      -98.492538      -31.648769
 H         -35.983528      -95.757332      -28.700403
 H         -34.884418      -96.998871      -28.733221
 H         -34.330097      -95.937950      -32.968597
 H         -33.621460      -97.467751      -32.847668
 H         -33.564205      -95.113083      -29.380138
 H         -34.618637      -94.459038      -30.473234
 H         -32.687790      -95.619072      -31.692417
 H         -32.822643      -96.836060      -30.473143
