20
 generated by VMD
 C         -48.164219     -140.353699      -45.709213
 N         -46.999435     -140.043182      -45.604950
 H         -51.135654     -138.596191      -45.724300
 H         -49.180775     -140.658173      -45.873489
 C         -51.939911     -139.325195      -45.757507
 C         -52.266689     -139.408081      -47.200161
 C         -53.157074     -139.304214      -44.848980
 C         -53.258656     -140.484558      -47.557613
 C         -54.131245     -140.485092      -45.094357
 C         -54.478252     -140.557861      -46.584812
 H         -51.373177     -139.452667      -47.719395
 H         -52.678146     -138.408859      -47.444176
 H         -52.796471     -139.249924      -43.822445
 H         -53.820797     -138.442032      -44.754082
 H         -52.677563     -141.455170      -47.620087
 H         -53.580460     -140.259918      -48.667477
 H         -55.085449     -140.191483      -44.640148
 H         -53.720074     -141.469345      -44.884068
 H         -55.250988     -141.431824      -46.738663
 H         -54.995174     -139.614838      -46.914631
