20
 generated by VMD
 C         -34.149120      -97.177719      -26.427694
 N         -34.796627      -97.234657      -25.468639
 H         -35.282814      -94.548515      -27.470339
 H         -33.595612      -97.103378      -27.450880
 C         -35.148678      -94.110695      -28.456869
 C         -36.041443      -94.761581      -29.545433
 C         -33.834888      -93.605003      -28.949789
 C         -35.956852      -94.265274      -30.958885
 C         -33.731335      -93.134521      -30.417421
 C         -34.483524      -94.101669      -31.327560
 H         -37.029442      -94.733307      -29.191339
 H         -35.699871      -95.817726      -29.470055
 H         -33.360001      -92.766068      -28.476643
 H         -33.107510      -94.459908      -28.948948
 H         -36.482384      -93.317009      -31.149979
 H         -36.396889      -95.009163      -31.691353
 H         -32.723347      -92.976631      -30.632408
 H         -34.261730      -92.123016      -30.545189
 H         -34.360283      -93.699448      -32.265278
 H         -33.959259      -95.041679      -31.445358
