20
 generated by VMD
 C         -39.438988     -105.568130      -37.188805
 N         -40.583324     -105.483742      -37.106884
 H         -39.283379     -107.701462      -35.158195
 H         -38.428745     -105.845367      -37.116745
 C         -39.546478     -108.364899      -34.313473
 C         -38.369823     -108.693771      -33.341484
 C         -40.557213     -109.439339      -34.274410
 C         -38.957500     -108.760193      -31.936165
 C         -41.121696     -109.445152      -32.764080
 C         -40.141273     -109.681305      -31.761345
 H         -37.613148     -108.022362      -33.470524
 H         -37.988529     -109.660957      -33.647572
 H         -41.307205     -109.402596      -35.084942
 H         -40.202744     -110.496758      -34.312119
 H         -39.101723     -107.687126      -31.601875
 H         -38.152225     -109.140839      -31.332602
 H         -41.887741     -110.179176      -32.656822
 H         -41.732967     -108.538994      -32.639648
 H         -40.550587     -109.615761      -30.848299
 H         -39.771793     -110.762718      -31.865347
