20
 generated by VMD
 C         -31.248909      -75.743805      -21.544060
 N         -32.287430      -75.241898      -21.300781
 H         -27.749367      -75.156746      -19.826490
 H         -30.581572      -76.183784      -22.283064
 C         -26.818684      -75.183815      -20.464533
 C         -26.470182      -76.369019      -21.329021
 C         -25.864563      -74.013245      -20.407860
 C         -25.935596      -75.859093      -22.772470
 C         -25.334984      -73.591743      -21.750122
 C         -24.853825      -74.751396      -22.665503
 H         -27.213495      -77.170586      -21.440807
 H         -25.767656      -76.897980      -20.707996
 H         -26.297083      -73.050865      -19.989794
 H         -24.980989      -74.302338      -19.713545
 H         -26.739841      -75.313522      -23.361486
 H         -25.588528      -76.693756      -23.437187
 H         -24.461372      -72.934563      -21.734764
 H         -26.136539      -73.040077      -22.242340
 H         -24.723425      -74.449051      -23.732592
 H         -23.973219      -75.151581      -22.114864
