20
 generated by VMD
 C         -13.203321      -30.336464       -8.310305
 N         -13.784902      -30.284128       -9.257045
 H         -11.022662      -31.169233       -5.296665
 H         -11.034116      -31.701189       -3.551385
 C         -10.860391      -32.052029       -4.626446
 C          -9.407311      -32.665482       -4.804175
 C         -11.974339      -33.022205       -5.014849
 C          -9.347231      -34.010498       -4.020615
 C         -11.757182      -34.337093       -4.232786
 C         -10.390728      -34.947491       -4.584949
 H          -8.651890      -31.962631       -4.407487
 H          -9.257760      -32.897903       -5.895042
 H         -12.961492      -32.697868       -4.737962
 H         -11.967429      -33.292858       -6.048201
 H          -9.509159      -33.832741       -2.957768
 H          -8.435579      -34.509422       -4.271878
 H         -12.549773      -35.043491       -4.505027
 H         -11.783865      -34.062649       -3.144593
 H         -10.235868      -35.839123       -4.015809
 H         -10.302835      -35.241142       -5.630024
