20
 generated by VMD
 C         -29.518562      -74.732605      -19.659435
 N         -30.511330      -74.449791      -20.186417
 H         -25.920628      -73.474319      -18.842442
 H         -28.447231      -74.669182      -19.291122
 C         -25.656244      -73.455383      -19.912827
 C         -25.377714      -74.606598      -20.695454
 C         -25.443676      -72.109329      -20.493256
 C         -25.935822      -74.523659      -22.090103
 C         -25.987278      -71.917953      -21.926645
 C         -25.828754      -73.197571      -22.803513
 H         -25.759178      -75.433159      -20.191420
 H         -24.255568      -74.704399      -20.719666
 H         -25.896021      -71.410927      -19.736288
 H         -24.382330      -71.897301      -20.602545
 H         -27.048721      -74.685349      -22.072765
 H         -25.413107      -75.337067      -22.592035
 H         -25.632854      -71.123459      -22.535290
 H         -27.134455      -71.964256      -21.804024
 H         -26.449635      -73.219986      -23.657068
 H         -24.803408      -73.141594      -23.165110
