20
 generated by VMD
 C         -52.524380     -146.467636      -44.271374
 N         -51.726616     -146.556229      -45.078072
 H         -54.204220     -145.888290      -47.134525
 H         -53.207893     -146.253387      -43.428932
 C         -53.974251     -145.099243      -47.872723
 C         -52.899403     -144.981918      -48.835365
 C         -54.761322     -143.928177      -47.561424
 C         -53.434696     -144.347214      -50.137829
 C         -55.330688     -143.388306      -48.873360
 C         -54.285854     -143.059097      -49.880970
 H         -52.505749     -145.974442      -49.210468
 H         -52.104076     -144.436172      -48.389618
 H         -55.607456     -144.317444      -47.017704
 H         -54.076336     -143.194092      -47.080475
 H         -54.094559     -145.042038      -50.498657
 H         -52.634048     -144.032623      -50.785824
 H         -55.629074     -142.353943      -48.619648
 H         -56.100834     -143.993576      -49.211510
 H         -54.636440     -142.662933      -50.837345
 H         -53.629673     -142.214218      -49.577682
