20
 generated by VMD
 C         -57.356014     -150.936340      -48.512539
 N         -58.350979     -151.430206      -48.532612
 H         -54.495399     -148.726761      -47.318756
 H         -56.446049     -150.338989      -48.569523
 C         -54.441151     -148.699844      -48.392334
 C         -53.769848     -149.601242      -49.290016
 C         -54.512390     -147.349854      -48.848892
 C         -54.369381     -149.418381      -50.709656
 C         -55.193794     -147.234833      -50.199200
 C         -54.397415     -148.026871      -51.231995
 H         -54.122463     -150.551788      -48.992519
 H         -52.707050     -149.371094      -49.152626
 H         -55.222641     -146.822617      -48.104004
 H         -53.538094     -146.794220      -48.896469
 H         -55.379787     -149.832901      -50.678078
 H         -53.786613     -149.995850      -51.438416
 H         -54.978588     -146.176865      -50.555340
 H         -56.304810     -147.390823      -50.171459
 H         -54.767746     -147.923340      -52.320126
 H         -53.340454     -147.675385      -51.319672
