20
 generated by VMD
 C         -50.531471     -145.072449      -45.134899
 N         -50.498253     -145.552292      -44.103401
 H         -52.883007     -143.460175      -46.094208
 H         -50.413597     -144.566986      -46.066578
 C         -53.499352     -143.321671      -46.952499
 C         -52.566647     -143.252701      -48.140285
 C         -54.742100     -142.449158      -47.015991
 C         -53.423290     -143.398758      -49.453037
 C         -55.406174     -142.496017      -48.400322
 C         -54.477425     -142.348419      -49.520123
 H         -51.950474     -144.140137      -48.064087
 H         -51.934948     -142.310638      -47.866032
 H         -55.538219     -142.740723      -46.219833
 H         -54.499687     -141.347504      -46.687344
 H         -53.681713     -144.505310      -49.538334
 H         -52.719879     -143.151093      -50.283810
 H         -56.079609     -141.671387      -48.415386
 H         -55.900078     -143.499741      -48.421310
 H         -55.098495     -142.530457      -50.507698
 H         -54.100521     -141.246872      -49.518463
