20
 generated by VMD
 C         -60.547600     -155.569214      -54.504997
 N         -61.140644     -156.520126      -54.544140
 H         -59.255245     -155.202301      -51.598228
 H         -60.104313     -154.612183      -54.631481
 C         -58.194283     -155.348846      -51.529564
 C         -57.505791     -154.533112      -50.493965
 C         -57.365780     -156.136215      -52.513115
 C         -56.360596     -155.275497      -49.808018
 C         -56.186451     -156.739532      -51.888359
 C         -55.414013     -155.898865      -50.931614
 H         -58.270206     -154.291367      -49.637012
 H         -57.092556     -153.629761      -50.951313
 H         -57.974720     -156.922852      -53.036335
 H         -57.088585     -155.317093      -53.120674
 H         -56.575668     -156.052887      -49.111233
 H         -55.841236     -154.613983      -49.015324
 H         -55.613197     -157.051682      -52.851059
 H         -56.302620     -157.689377      -51.430546
 H         -54.556889     -156.474838      -50.472290
 H         -55.012398     -155.167618      -51.577629
