20
 generated by VMD
 C         -58.077812     -166.490585      -56.204071
 N         -58.210827     -167.286774      -55.319603
 H         -60.594505     -165.380249      -55.012470
 H         -57.863327     -165.892197      -57.115627
 C         -61.549397     -165.620224      -55.476864
 C         -61.801754     -166.874008      -56.316319
 C         -62.454636     -164.497284      -55.558487
 C         -63.289127     -167.220886      -56.369820
 C         -63.933830     -164.941620      -55.513939
 C         -64.186829     -166.043137      -56.539253
 H         -61.192703     -167.680405      -55.735394
 H         -61.439671     -166.576263      -57.317177
 H         -62.225098     -163.775558      -54.849010
 H         -62.340836     -163.923859      -56.534969
 H         -63.697983     -167.925186      -55.641483
 H         -63.491695     -167.864319      -57.261551
 H         -64.518150     -164.073364      -55.738865
 H         -64.224052     -165.347839      -54.440201
 H         -65.222565     -166.383865      -56.295868
 H         -64.145790     -165.532394      -57.515835
