20
 generated by VMD
 C         -41.642311     -120.209618      -34.289524
 N         -42.231800     -121.224586      -34.366024
 H         -43.421471     -119.385727      -37.238384
 H         -41.332180     -119.213707      -34.017570
 C         -43.949718     -119.043282      -38.189140
 C         -43.072006     -118.759644      -39.453857
 C         -45.295738     -118.422729      -38.029369
 C         -43.937473     -118.868340      -40.727089
 C         -46.076599     -118.412231      -39.443680
 C         -45.190678     -118.008102      -40.577721
 H         -42.300793     -119.458374      -39.567741
 H         -42.805229     -117.684822      -39.449226
 H         -45.843987     -118.973755      -37.333702
 H         -45.278515     -117.366394      -37.698090
 H         -44.267422     -119.903191      -40.965950
 H         -43.377087     -118.552399      -41.559799
 H         -46.909962     -117.553513      -39.288891
 H         -46.632004     -119.434212      -39.682590
 H         -45.801140     -118.122765      -41.484119
 H         -45.038410     -116.950958      -40.181297
