20
 generated by VMD
 C         -50.879288     -145.061523      -44.699337
 N         -50.934296     -146.185928      -44.397419
 H         -53.132511     -143.823608      -46.145638
 H         -50.743206     -144.077713      -45.054726
 C         -53.503025     -143.650970      -47.131226
 C         -52.596855     -143.663589      -48.388317
 C         -54.752087     -142.819794      -47.149288
 C         -53.418591     -143.596451      -49.707165
 C         -55.459694     -142.735580      -48.484798
 C         -54.474857     -142.505371      -49.656197
 H         -52.006008     -144.662704      -48.299046
 H         -51.968578     -142.785492      -48.314297
 H         -55.472553     -143.026215      -46.341343
 H         -54.460979     -141.644180      -46.879025
 H         -53.732201     -144.586441      -49.853916
 H         -52.731781     -143.475128      -50.565128
 H         -56.228699     -141.996872      -48.302704
 H         -55.891491     -143.655746      -48.732533
 H         -55.154598     -142.442322      -50.489704
 H         -53.926208     -141.551300      -49.395176
