20
 generated by VMD
 C         -51.544418     -145.840515      -43.906857
 N         -51.440144     -146.437897      -44.943100
 H         -53.580799     -145.119751      -46.719662
 H         -51.716721     -145.241074      -43.039738
 C         -53.831032     -144.556229      -47.602585
 C         -52.865204     -144.440811      -48.784256
 C         -54.810055     -143.461075      -47.409828
 C         -53.450779     -143.956100      -50.025002
 C         -55.453785     -143.071594      -48.787479
 C         -54.258381     -142.703751      -49.790871
 H         -52.376404     -145.392410      -48.783733
 H         -52.206181     -143.716782      -48.493446
 H         -55.628750     -143.795090      -46.748791
 H         -54.108963     -142.629257      -46.920071
 H         -54.204082     -144.748169      -50.413315
 H         -52.566429     -143.770493      -50.806118
 H         -56.093666     -142.165405      -48.503815
 H         -56.087196     -143.862701      -49.111282
 H         -54.619476     -142.381134      -50.739811
 H         -53.744022     -141.894104      -49.465267
