20
 generated by VMD
 C          -9.234442      -24.090984        1.914089
 N          -9.152073      -25.133158        2.272393
 H          -7.717026      -23.242517       -0.861630
 H          -8.807677      -22.720276       -1.896769
 C          -7.774796      -23.033337       -1.911848
 C          -7.578970      -24.178484       -2.789030
 C          -6.900956      -21.862850       -2.199698
 C          -7.668915      -23.801416       -4.231337
 C          -6.962049      -21.449282       -3.710597
 C          -6.743501      -22.698400       -4.572504
 H          -8.263017      -25.000345       -2.670316
 H          -6.504022      -24.518024       -2.620447
 H          -7.099038      -21.054678       -1.520962
 H          -5.855648      -22.208082       -2.055048
 H          -8.698917      -23.482283       -4.350411
 H          -7.363000      -24.713615       -4.777603
 H          -6.258247      -20.658859       -3.928055
 H          -7.975653      -21.134457       -3.958507
 H          -6.827519      -22.419094       -5.637024
 H          -5.689805      -23.075113       -4.419184
