20
 generated by VMD
 C         -10.963967      -34.195896       -8.684956
 N         -11.212027      -33.154243       -8.951536
 H         -11.544271      -38.022072       -8.128602
 H         -12.127201      -37.305012       -6.526760
 C         -12.358270      -38.039295       -7.315785
 C         -12.496505      -39.343239       -6.587460
 C         -13.633652      -37.691586       -8.045187
 C         -13.638582      -39.291191       -5.621045
 C         -14.872122      -37.743198       -7.093486
 C         -14.951007      -39.050358       -6.299324
 H         -11.539926      -39.484753       -6.092955
 H         -12.587675      -40.161121       -7.264647
 H         -13.624799      -36.665886       -8.485245
 H         -13.737698      -38.443150       -8.855165
 H         -13.439853      -38.494907       -4.872989
 H         -13.733217      -40.191868       -5.088651
 H         -15.829741      -37.729218       -7.706696
 H         -14.903929      -36.900288       -6.377810
 H         -15.839450      -39.063152       -5.593360
 H         -15.099282      -39.902779       -6.968809
