20
 generated by VMD
 C         -69.886116     -184.567688      -66.342293
 N         -69.003242     -184.334686      -67.029747
 H         -69.620850     -183.405777      -63.391212
 H         -70.687172     -184.855942      -65.628014
 C         -69.077362     -183.606644      -62.494698
 C         -69.352676     -184.627991      -61.465755
 C         -68.156769     -182.439758      -62.033646
 C         -68.122856     -184.953186      -60.558399
 C         -66.884476     -182.945328      -61.401676
 C         -67.189384     -183.826874      -60.175220
 H         -69.821182     -185.476974      -62.044868
 H         -70.149353     -184.226135      -60.808903
 H         -67.999062     -181.879654      -62.913094
 H         -68.614227     -181.779526      -61.293091
 H         -67.507591     -185.817184      -61.024960
 H         -68.636177     -185.434021      -59.686535
 H         -66.187492     -182.109955      -61.172024
 H         -66.283897     -183.576050      -61.990696
 H         -66.317772     -184.206085      -59.730228
 H         -67.653900     -183.124786      -59.408230
