20
 generated by VMD
 C          -9.989446      -36.286850       -7.148458
 N         -10.099829      -36.775436       -8.151760
 H         -13.293527      -38.092159       -7.957826
 H         -14.592237      -38.543743       -6.756760
 C         -14.164675      -38.840374       -7.723905
 C         -13.525485      -40.262722       -7.638560
 C         -15.258152      -38.822285       -8.806761
 C         -14.567817      -41.486263       -7.481335
 C         -16.362713      -39.974152       -8.538968
 C         -15.686061      -41.330944       -8.527461
 H         -12.881834      -40.241592       -6.747862
 H         -12.939784      -40.521263       -8.521551
 H         -15.725756      -37.783100       -8.715884
 H         -14.853489      -38.925083       -9.811792
 H         -15.052395      -41.438614       -6.479023
 H         -14.004808      -42.410774       -7.619994
 H         -17.139671      -39.865021       -9.357183
 H         -16.878637      -39.718189       -7.651622
 H         -16.408861      -42.209057       -8.414750
 H         -15.195838      -41.487705       -9.504093
