20
 generated by VMD
 C         -18.182350      -48.611206       -7.282200
 N         -18.836319      -49.345524       -6.739179
 H         -16.204090      -47.787533      -10.046220
 H         -16.239613      -49.099751      -11.158583
 C         -16.338892      -47.979622      -11.137797
 C         -15.128650      -47.345623      -11.958175
 C         -17.704197      -47.465778      -11.639581
 C         -15.324435      -47.226730      -13.436572
 C         -17.818544      -47.557159      -13.154853
 C         -16.723783      -46.796005      -13.901846
 H         -14.190378      -47.700176      -11.582987
 H         -15.102663      -46.274849      -11.675393
 H         -18.492073      -48.103302      -11.243518
 H         -17.883083      -46.449802      -11.354865
 H         -15.170336      -48.214493      -13.888983
 H         -14.627746      -46.455601      -13.819085
 H         -18.777746      -47.167271      -13.457602
 H         -17.881607      -48.540607      -13.535298
 H         -16.809828      -46.935520      -15.015170
 H         -16.818014      -45.684830      -13.712551
