20
 generated by VMD
 C         -79.357559     -204.731369      -70.828705
 N         -80.422813     -205.254837      -70.760803
 H         -76.846283     -203.385422      -69.023796
 H         -78.325768     -204.272079      -70.729668
 C         -75.910957     -203.116623      -69.362000
 C         -75.643143     -201.945847      -70.240082
 C         -74.837036     -204.091614      -68.940620
 C         -74.112411     -201.584030      -70.508354
 C         -73.405037     -203.685776      -69.082825
 C         -73.124222     -202.669601      -70.264999
 H         -76.181122     -201.106689      -69.763901
 H         -76.100586     -202.225998      -71.185020
 H         -74.979385     -204.237564      -67.832603
 H         -74.942215     -205.035873      -69.626785
 H         -73.766098     -200.754715      -69.895844
 H         -74.051399     -201.300049      -71.536163
 H         -72.754013     -204.619812      -69.146263
 H         -73.124565     -202.970627      -68.144211
 H         -72.084305     -202.247467      -70.048569
 H         -73.144936     -203.288956      -71.266365
