20
 generated by VMD
 C         -74.950356     -201.848785      -66.453270
 N         -74.465950     -201.258392      -65.589592
 H         -76.329376     -199.287247      -68.890587
 H         -75.159561     -202.392517      -67.406258
 C         -75.430908     -198.705353      -69.033714
 C         -74.971657     -197.480957      -68.277588
 C         -74.352264     -199.413300      -69.895866
 C         -73.467422     -197.251190      -68.035378
 C         -73.273155     -198.393082      -70.276596
 C         -72.463089     -197.803619      -69.026718
 H         -75.421730     -197.472336      -67.331390
 H         -75.303665     -196.600418      -68.859123
 H         -73.999496     -200.310974      -69.445312
 H         -74.840248     -199.853851      -70.800629
 H         -73.098709     -197.500107      -67.065056
 H         -73.279900     -196.135529      -67.961670
 H         -73.859612     -197.603516      -70.703285
 H         -72.566864     -198.753098      -70.983749
 H         -71.921883     -198.551697      -68.578430
 H         -71.735893     -197.029083      -69.535721
