20
 generated by VMD
 C         -65.560600     -177.636215      -56.676407
 N         -66.122879     -176.711258      -56.292759
 H         -64.823242     -175.491104      -59.357506
 H         -65.031982     -178.491592      -56.975746
 C         -64.583809     -174.359055      -59.433807
 C         -65.387253     -173.345016      -58.653778
 C         -63.467556     -174.009415      -60.426193
 C         -65.035965     -171.876343      -58.849709
 C         -63.094036     -172.463013      -60.474743
 C         -64.366333     -171.575821      -60.165371
 H         -65.614914     -173.677933      -57.685017
 H         -66.391754     -173.259995      -59.191605
 H         -62.648758     -174.636734      -60.307301
 H         -63.687847     -174.355087      -61.400089
 H         -64.430679     -171.650375      -58.015022
 H         -65.963066     -171.407745      -58.655838
 H         -62.526646     -172.043518      -61.365295
 H         -62.485802     -172.274963      -59.566113
 H         -63.948364     -170.522079      -60.174774
 H         -64.966774     -171.755676      -61.015411
