20
 generated by VMD
 C         -33.088474      -96.774124      -25.357178
 N         -32.729221      -96.437904      -24.290384
 H         -34.512981      -93.944069      -27.506535
 H         -33.519028      -97.002930      -26.251036
 C         -34.700840      -93.420700      -28.431036
 C         -36.046417      -93.472214      -29.086868
 C         -33.480457      -93.107506      -29.321510
 C         -36.332088      -92.713715      -30.360844
 C         -33.721142      -92.289322      -30.604675
 C         -35.035599      -92.731194      -31.240887
 H         -36.814129      -93.079948      -28.351147
 H         -36.283298      -94.543510      -29.233938
 H         -32.629707      -92.646667      -28.746105
 H         -33.172588      -94.117661      -29.680216
 H         -36.779728      -91.652657      -30.189608
 H         -37.044659      -93.102715      -31.032387
 H         -32.808022      -92.328583      -31.255051
 H         -33.871277      -91.254799      -30.329430
 H         -35.102192      -92.078362      -32.173489
 H         -34.974079      -93.790237      -31.736244
