20
 generated by VMD
 C         -38.968185     -111.459038      -36.520241
 N         -38.347595     -110.512939      -36.634457
 H         -40.198586     -114.155800      -34.933826
 H         -39.433918     -112.464973      -36.585949
 C         -41.212910     -113.825424      -35.211983
 C         -41.603092     -113.945831      -36.612408
 C         -41.877132     -112.911835      -34.307880
 C         -43.107151     -114.060135      -36.728134
 C         -43.429287     -112.874199      -34.440315
 C         -43.847675     -113.005615      -35.928673
 H         -41.172138     -114.836479      -37.151043
 H         -41.311352     -112.995560      -37.007977
 H         -41.626080     -113.091995      -33.256279
 H         -41.673759     -111.897583      -34.634373
 H         -43.413345     -115.092880      -36.487190
 H         -43.366600     -114.020287      -37.742008
 H         -43.908352     -111.886505      -34.053654
 H         -43.769573     -113.832497      -33.929092
 H         -44.904274     -113.159836      -36.014313
 H         -43.639549     -111.980614      -36.425697
