20
 generated by VMD
 C         -68.859802     -188.868378      -67.097542
 N         -67.910492     -189.403214      -66.709358
 H         -68.534729     -187.470016      -63.795025
 H         -69.675636     -188.205475      -67.443695
 C         -69.383919     -187.956299      -63.285606
 C         -69.727524     -189.424088      -63.458744
 C         -70.543167     -187.163071      -62.808086
 C         -71.071800     -189.647324      -64.268967
 C         -71.679688     -187.267975      -63.756775
 C         -72.246361     -188.736359      -63.899059
 H         -70.001793     -189.863617      -62.517342
 H         -68.846619     -189.876968      -63.782211
 H         -70.813896     -187.558853      -61.836941
 H         -70.247864     -186.174622      -62.741844
 H         -71.393089     -190.659821      -64.204407
 H         -70.899200     -189.413483      -65.349480
 H         -71.358704     -186.852341      -64.770332
 H         -72.434303     -186.680847      -63.266685
 H         -72.527390     -189.150528      -62.933922
 H         -72.990837     -188.797714      -64.602242
