20
 generated by VMD
 C         -12.014151      -41.669346       -7.404199
 N         -11.560492      -40.777645       -6.883382
 H         -14.101768      -40.676071       -8.408694
 H         -15.377337      -40.185944       -9.435570
 C         -14.896266      -41.076542       -8.968943
 C         -16.042063      -41.774960       -8.203493
 C         -14.317870      -42.025959      -10.009199
 C         -17.081919      -42.204273       -9.254315
 C         -15.359215      -42.599079      -10.956565
 C         -16.539577      -43.246037      -10.218711
 H         -16.503767      -41.013783       -7.550610
 H         -15.619998      -42.621609       -7.627696
 H         -13.563894      -41.480984      -10.613049
 H         -13.810911      -42.876793       -9.411572
 H         -17.315041      -41.370049       -9.917278
 H         -17.996454      -42.594082       -8.734196
 H         -14.945104      -43.378197      -11.711112
 H         -15.724088      -41.828854      -11.585328
 H         -17.332119      -43.659824      -10.871430
 H         -16.156101      -44.161900       -9.742785
