20
 generated by VMD
 C         -38.344452     -112.719116      -35.900517
 N         -37.691708     -112.152054      -36.714909
 H         -40.931530     -114.664253      -34.857838
 H         -38.947113     -113.282494      -35.245899
 C         -41.918095     -114.479645      -35.406933
 C         -41.970940     -114.554092      -36.913486
 C         -42.996452     -113.758553      -34.669224
 C         -43.412609     -114.808319      -37.536869
 C         -44.488140     -113.905647      -35.298557
 C         -44.416977     -113.917816      -36.819244
 H         -41.367256     -115.332954      -37.422451
 H         -41.747345     -113.523064      -37.385571
 H         -43.014370     -114.081665      -33.638676
 H         -42.659332     -112.711807      -34.759052
 H         -43.530788     -115.852982      -37.296890
 H         -43.404362     -114.736092      -38.658108
 H         -45.237320     -113.107811      -34.937084
 H         -44.803947     -114.856529      -34.823906
 H         -45.506451     -113.980690      -37.228828
 H         -44.173431     -112.836807      -37.030098
