20
 generated by VMD
 C         -22.373837      -67.563911      -16.177889
 N         -21.221788      -67.393120      -16.062429
 H         -23.898119      -65.918259      -17.871796
 H         -23.366644      -67.763824      -16.039326
 C         -24.539047      -66.266640      -18.677254
 C         -23.868469      -66.897972      -19.844395
 C         -25.974594      -66.419724      -18.396582
 C         -24.487469      -68.114037      -20.464928
 C         -26.412970      -67.778404      -18.860315
 C         -25.988163      -68.167488      -20.276438
 H         -22.790461      -66.990120      -19.775702
 H         -23.856033      -66.076744      -20.575624
 H         -26.143284      -66.193916      -17.281778
 H         -26.554562      -65.752045      -19.005402
 H         -24.114353      -69.030464      -20.008657
 H         -24.274263      -68.119232      -21.498779
 H         -27.504179      -67.902107      -18.712759
 H         -25.875849      -68.363663      -18.171024
 H         -26.292915      -69.206329      -20.534901
 H         -26.375130      -67.518181      -21.047104
