20
 generated by VMD
 C         -49.942783     -143.368225      -44.570671
 N         -49.215389     -143.460312      -45.447266
 H         -51.909714     -141.019699      -45.535866
 H         -50.697231     -143.215012      -43.813137
 C         -52.636471     -141.250061      -46.341129
 C         -52.139751     -141.554626      -47.643307
 C         -54.150070     -141.089417      -46.137005
 C         -53.131569     -142.185440      -48.689133
 C         -55.021496     -141.908325      -47.124393
 C         -54.547585     -141.685623      -48.592854
 H         -51.302418     -142.255875      -47.599518
 H         -51.713882     -140.587555      -48.155281
 H         -54.363220     -141.431992      -45.096325
 H         -54.337254     -139.964417      -46.197556
 H         -53.077133     -143.316055      -48.459988
 H         -52.740768     -142.085892      -49.746708
 H         -56.091774     -141.571350      -47.090698
 H         -55.064106     -142.975235      -46.758156
 H         -55.241550     -142.128784      -49.347183
 H         -54.583618     -140.609329      -48.854187
