20
 generated by VMD
 C         -38.489605     -113.149940      -36.401333
 N         -37.351070     -113.152412      -36.190445
 H         -41.302795     -114.671051      -34.944160
 H         -39.561008     -113.293297      -36.608524
 C         -42.255486     -114.736267      -35.529610
 C         -42.161934     -114.601257      -37.037560
 C         -43.493214     -114.224205      -34.871601
 C         -43.391106     -115.068672      -37.730129
 C         -44.814030     -114.610207      -35.684555
 C         -44.608448     -114.307137      -37.168800
 H         -41.237022     -115.169250      -37.267239
 H         -41.804802     -113.557503      -37.171814
 H         -43.688206     -114.508301      -33.811054
 H         -43.427406     -113.115402      -34.721504
 H         -43.468700     -116.144760      -37.434242
 H         -43.295864     -114.980949      -38.779385
 H         -45.764820     -114.223038      -35.279060
 H         -45.051163     -115.691956      -35.487614
 H         -45.644405     -114.664360      -37.674728
 H         -44.348190     -113.258148      -37.380798
