20
 generated by VMD
 C         -28.445753      -85.596893      -26.798372
 N         -27.346094      -85.793526      -26.378260
 H         -31.138384      -85.416565      -25.555378
 H         -29.393194      -85.531464      -27.277756
 C         -31.901726      -86.092712      -25.723000
 C         -32.576672      -86.459961      -24.464888
 C         -32.007652      -86.931282      -26.922779
 C         -33.839439      -87.188736      -24.530792
 C         -33.444038      -87.394394      -27.065802
 C         -33.822460      -88.178780      -25.693140
 H         -32.695225      -85.604111      -23.847126
 H         -32.007530      -87.056175      -23.711893
 H         -31.708630      -86.174194      -27.690401
 H         -31.269766      -87.690384      -26.824261
 H         -34.703911      -86.380981      -24.501738
 H         -34.052536      -87.601860      -23.512121
 H         -33.554539      -87.961388      -27.978739
 H         -34.208611      -86.584908      -27.165146
 H         -34.770561      -88.676529      -25.894117
 H         -32.990143      -88.868080      -25.424911
