20
 generated by VMD
 C         -58.465763     -168.475677      -54.945065
 N         -57.273102     -168.628082      -54.940643
 H         -61.874542     -168.127716      -55.617180
 H         -59.563023     -168.394516      -54.977436
 C         -62.449528     -167.441483      -56.160427
 C         -62.666885     -167.666321      -57.605911
 C         -62.881756     -166.174423      -55.675400
 C         -64.135841     -167.586380      -57.930592
 C         -64.352280     -165.891098      -55.987442
 C         -64.683876     -166.282288      -57.445324
 H         -62.181477     -168.643677      -57.797031
 H         -62.045689     -166.916779      -58.290367
 H         -62.851158     -166.224319      -54.583927
 H         -62.390320     -165.372406      -56.143745
 H         -64.644348     -168.488022      -57.570705
 H         -64.213142     -167.691666      -59.020550
 H         -64.595612     -164.862778      -55.634884
 H         -65.120171     -166.622208      -55.402302
 H         -65.766380     -166.087112      -57.790405
 H         -64.056038     -165.473831      -57.974041
