20
 generated by VMD
 C          -4.248716      -20.832476        2.857214
 N          -4.789657      -19.854155        2.803015
 H          -5.078680      -18.989517       -0.354867
 H          -5.844315      -20.540440       -0.259809
 C          -5.888951      -19.593513       -0.796373
 C          -5.675288      -19.754814       -2.295714
 C          -7.243351      -18.980331       -0.483032
 C          -6.793370      -20.435333       -3.070696
 C          -8.364572      -19.721865       -1.263825
 C          -8.148400      -19.872326       -2.731365
 H          -4.684421      -20.149157       -2.463591
 H          -5.513180      -18.695127       -2.653564
 H          -7.497727      -18.970228        0.524728
 H          -7.331033      -17.937809       -0.733762
 H          -6.724961      -21.547802       -2.808529
 H          -6.703799      -20.382223       -4.181147
 H          -9.295238      -19.165442       -1.095117
 H          -8.483097      -20.739815       -0.779705
 H          -8.975354      -20.522665       -3.106274
 H          -8.317337      -19.006159       -3.377244
