20
 generated by VMD
 C         -30.864410      -77.992126      -25.237148
 N         -31.675396      -77.172142      -25.254969
 H         -29.338284      -76.966507      -22.612886
 H         -30.046194      -78.622360      -25.531586
 C         -28.762751      -77.877380      -22.478296
 C         -27.448307      -77.977814      -23.136332
 C         -29.331264      -79.021606      -21.666849
 C         -26.367613      -78.987602      -22.606220
 C         -28.075491      -79.817703      -20.942102
 C         -26.969294      -80.196297      -21.930674
 H         -26.961676      -76.954025      -22.973204
 H         -27.671896      -78.221527      -24.255367
 H         -29.895290      -78.550179      -20.895121
 H         -30.045889      -79.699936      -22.245121
 H         -25.667620      -78.480751      -21.877411
 H         -25.638330      -79.215591      -23.422667
 H         -28.593302      -80.746239      -20.480576
 H         -27.724716      -79.203056      -20.069437
 H         -26.257748      -80.832283      -21.393202
 H         -27.361580      -80.921112      -22.617901
