20
 generated by VMD
 C         -22.333557      -68.116295      -16.564169
 N         -21.723185      -68.194115      -15.570425
 H         -24.434080      -65.471008      -18.475264
 H         -23.101084      -68.058601      -17.218517
 C         -24.610071      -66.498459      -18.784935
 C         -23.968241      -67.045502      -20.000074
 C         -26.151993      -66.538445      -19.002024
 C         -24.493591      -68.467194      -20.399006
 C         -26.562117      -67.994019      -19.073023
 C         -26.016500      -68.551086      -20.322010
 H         -22.803102      -67.104065      -19.762924
 H         -24.145565      -66.397240      -20.898340
 H         -26.532251      -66.141380      -18.078554
 H         -26.376938      -65.996704      -19.882551
 H         -23.988592      -69.227943      -19.707373
 H         -24.195583      -68.789070      -21.407776
 H         -27.702518      -68.119698      -19.256887
 H         -26.370127      -68.564163      -18.108297
 H         -26.420679      -69.568604      -20.346701
 H         -26.370380      -68.014923      -21.175587
