20
 generated by VMD
 C         -41.536411     -119.563011      -34.354435
 N         -41.480419     -120.248779      -35.296551
 H         -43.369156     -118.711044      -36.901012
 H         -41.828957     -118.979813      -33.478600
 C         -43.837486     -118.279884      -37.751472
 C         -42.950172     -118.316696      -38.962288
 C         -45.169235     -117.610405      -37.781525
 C         -43.767384     -118.646706      -40.250896
 C         -45.976147     -118.144897      -38.926121
 C         -45.134827     -117.892296      -40.190361
 H         -42.202827     -119.087059      -38.661022
 H         -42.470093     -117.290207      -38.987797
 H         -45.758320     -117.809822      -36.827698
 H         -45.043442     -116.561012      -37.808334
 H         -43.940422     -119.682907      -40.431389
 H         -43.094543     -118.355560      -41.098034
 H         -46.889874     -117.671898      -39.051380
 H         -46.244198     -119.208282      -38.971851
 H         -45.706814     -117.959167      -41.209492
 H         -44.810074     -116.833107      -40.301067
