20
 generated by VMD
 C         -49.645832     -131.807098      -46.614449
 N         -50.110687     -132.561066      -47.302235
 H         -47.865738     -133.104538      -44.250702
 H         -49.350471     -131.033020      -45.938389
 C         -48.619167     -133.437378      -43.591686
 C         -49.437370     -134.564941      -43.990234
 C         -49.083920     -132.623566      -42.396389
 C         -49.570026     -135.521881      -42.830475
 C         -49.116848     -133.549103      -41.216652
 C         -49.918938     -134.888031      -41.545807
 H         -49.005482     -135.095276      -44.847500
 H         -50.402977     -134.165009      -44.376820
 H         -48.480137     -131.777985      -42.235863
 H         -50.136055     -132.244339      -42.610909
 H         -48.537453     -135.896423      -42.719841
 H         -50.194431     -136.297501      -43.277386
 H         -49.631672     -132.974884      -40.338802
 H         -48.090740     -133.792114      -40.898678
 H         -49.809429     -135.626419      -40.809887
 H         -51.033875     -134.880737      -41.503593
