20
 generated by VMD
 C         -39.899300      -99.430473      -28.595436
 N         -39.090534     -100.032150      -28.043354
 H         -37.443775      -98.807968      -30.672661
 H         -40.476322      -98.734299      -29.282328
 C         -36.344059      -98.488037      -30.663361
 C         -35.860794      -98.598282      -32.082096
 C         -35.539467      -97.970268      -29.499472
 C         -34.523399      -97.873047      -32.523361
 C         -34.320431      -97.176071      -29.957026
 C         -33.598564      -97.659813      -31.221863
 H         -36.663158      -98.085320      -32.746475
 H         -35.824768      -99.653397      -32.367210
 H         -36.187099      -97.242722      -28.857443
 H         -35.313171      -98.861214      -28.893566
 H         -34.764385      -96.874321      -32.863052
 H         -33.845150      -98.473846      -33.249729
 H         -33.604828      -96.881981      -29.058050
 H         -34.712296      -96.195396      -30.232756
 H         -32.857594      -96.893837      -31.361269
 H         -33.100094      -98.605423      -30.961903
