20
 generated by VMD
 C         -39.754749     -107.539467      -37.768265
 N         -39.062389     -106.599655      -37.851551
 H         -39.380165     -108.538490      -35.026508
 H         -40.260899     -108.525200      -37.689781
 C         -39.879978     -109.170609      -34.357773
 C         -39.012470     -110.141830      -33.653511
 C         -41.363247     -109.056519      -34.157574
 C         -39.703968     -111.011101      -32.516628
 C         -41.924873     -109.735298      -32.933041
 C         -41.222118     -111.120377      -32.808212
 H         -38.239792     -109.499039      -33.125706
 H         -38.464878     -110.882240      -34.305931
 H         -41.460850     -107.985298      -34.003807
 H         -41.932194     -109.378471      -34.997452
 H         -39.534855     -110.469208      -31.627239
 H         -39.381710     -112.053505      -32.462852
 H         -43.012371     -109.645294      -33.106304
 H         -41.886433     -109.095627      -31.997398
 H         -41.673809     -111.678505      -31.923033
 H         -41.384941     -111.742607      -33.717484
