20
 generated by VMD
 C         -38.753323      -99.011925      -27.227974
 N         -37.818283      -99.300804      -26.585543
 H         -37.288982      -97.414963      -30.294334
 H         -39.608902      -98.880066      -27.895222
 C         -36.275078      -96.982758      -30.543020
 C         -35.670345      -97.499115      -31.816765
 C         -35.282310      -96.553375      -29.473043
 C         -34.193672      -96.946327      -32.147549
 C         -34.297169      -95.507759      -30.148918
 C         -33.410877      -96.175087      -31.124714
 H         -36.305744      -97.341377      -32.713211
 H         -35.653229      -98.538094      -31.729437
 H         -35.872700      -96.113724      -28.644245
 H         -34.681679      -97.391151      -29.173937
 H         -34.481682      -96.380554      -33.088627
 H         -33.705307      -97.845909      -32.447105
 H         -33.581734      -95.275681      -29.426895
 H         -34.780216      -94.616913      -30.630133
 H         -32.803158      -95.283691      -31.475292
 H         -32.679852      -96.834038      -30.600410
