20
 generated by VMD
 C         -28.507891      -86.822105      -26.889469
 N         -27.549402      -87.128403      -26.375334
 H         -31.033051      -88.510719      -25.354956
 H         -29.375227      -86.552719      -27.578354
 C         -32.018421      -88.114098      -25.611889
 C         -33.196632      -88.129990      -24.673098
 C         -32.218647      -88.044487      -27.078369
 C         -34.494900      -87.696815      -25.292725
 C         -33.548428      -87.387459      -27.588428
 C         -34.681019      -87.982582      -26.805006
 H         -33.075977      -87.402779      -23.955105
 H         -33.173542      -89.163254      -24.348606
 H         -31.411661      -87.471779      -27.478340
 H         -32.115997      -89.071411      -27.534210
 H         -34.720238      -86.603447      -24.978798
 H         -35.246155      -88.243080      -24.713680
 H         -33.749195      -87.560585      -28.708567
 H         -33.377926      -86.347221      -27.559151
 H         -35.651428      -87.587837      -26.965054
 H         -34.751507      -89.041252      -26.893316
