20
 generated by VMD
 C         -59.862244     -152.139435      -50.374367
 N         -58.991898     -152.767990      -50.084187
 H         -56.783501     -151.161530      -48.811893
 H         -60.709034     -151.464386      -50.587948
 C         -55.891846     -150.726440      -49.241409
 C         -54.856327     -151.744614      -49.675480
 C         -55.371861     -149.309158      -49.103466
 C         -54.294003     -151.445343      -51.086628
 C         -54.811291     -148.961731      -50.498188
 C         -53.858521     -149.994812      -51.186871
 H         -55.399632     -152.738205      -49.738029
 H         -54.052517     -151.804230      -49.008430
 H         -56.002819     -148.569138      -48.664726
 H         -54.498650     -149.455750      -48.442120
 H         -55.165329     -151.560028      -51.737514
 H         -53.517712     -152.200546      -51.364456
 H         -54.212425     -148.120575      -50.509392
 H         -55.706009     -148.735031      -51.240398
 H         -53.878899     -149.819901      -52.239597
 H         -52.684467     -149.931381      -50.986156
