20
 generated by VMD
 C         -59.385193     -158.245117      -56.539730
 N         -58.677528     -158.579666      -57.394211
 H         -60.525501     -158.113724      -53.410675
 H         -60.114864     -157.912750      -55.789978
 C         -59.988762     -158.942856      -53.019432
 C         -58.497784     -158.780838      -52.557846
 C         -60.660244     -160.385468      -53.260201
 C         -58.174351     -159.944931      -51.521954
 C         -60.243073     -161.267563      -52.093918
 C         -58.755627     -161.356827      -51.891956
 H         -58.458809     -157.846207      -51.988194
 H         -57.924423     -158.842346      -53.454933
 H         -61.728973     -160.468521      -53.301193
 H         -60.234436     -160.720718      -54.221924
 H         -58.778320     -159.769669      -50.583420
 H         -57.180527     -159.937698      -51.274937
 H         -60.725952     -162.225601      -52.413029
 H         -60.713654     -160.960144      -51.166706
 H         -58.432556     -161.985397      -51.097523
 H         -58.279381     -161.697723      -52.729588
