20
 generated by VMD
 C          -5.730484      -21.198172        1.557706
 N          -5.652327      -21.311781        2.673074
 H          -4.966800      -18.525562       -1.121743
 H          -5.504412      -20.009554       -0.132605
 C          -5.735465      -19.296848       -1.084981
 C          -5.531800      -20.143852       -2.355694
 C          -7.147723      -18.716038       -1.055618
 C          -6.612335      -21.240593       -2.573088
 C          -8.177048      -19.766678       -1.179232
 C          -8.049929      -20.716896       -2.400274
 H          -4.549499      -20.587252       -2.378523
 H          -5.579221      -19.490719       -3.300224
 H          -7.269974      -18.045341       -0.205555
 H          -7.199310      -17.921577       -1.787494
 H          -6.394276      -21.949827       -1.755169
 H          -6.428880      -21.806105       -3.535246
 H          -9.202117      -19.317638       -1.162898
 H          -8.148626      -20.399878       -0.284760
 H          -8.771783      -21.550474       -2.244777
 H          -8.399470      -20.224142       -3.346012
