20
 generated by VMD
 C         -78.762505     -204.254318      -70.478088
 N         -79.870262     -204.499847      -70.424805
 H         -76.531563     -203.483444      -68.569725
 H         -77.661469     -204.071106      -70.651443
 C         -75.735428     -203.131729      -69.133492
 C         -75.740387     -201.714279      -69.633171
 C         -74.469849     -203.831253      -68.868576
 C         -74.602814     -201.719467      -70.805290
 C         -73.258316     -202.944519      -69.105392
 C         -73.220573     -201.970444      -70.366226
 H         -75.460205     -201.121414      -68.782539
 H         -76.670128     -201.332443      -70.088081
 H         -74.511780     -204.126175      -67.845314
 H         -74.381599     -204.674866      -69.455711
 H         -74.639778     -200.840622      -71.389244
 H         -74.838890     -202.523941      -71.508362
 H         -72.334358     -203.667511      -69.193047
 H         -73.039017     -202.230682      -68.289101
 H         -72.737068     -200.984604      -70.132439
 H         -72.640175     -202.295792      -71.266838
