20
 generated by VMD
 C         -68.277679     -179.738190      -58.959240
 N         -68.173622     -179.980820      -60.105064
 H         -67.432274     -176.701462      -59.708267
 H         -68.472061     -179.485703      -57.891762
 C         -66.427032     -176.836548      -60.035477
 C         -66.083847     -176.396408      -61.435982
 C         -65.275963     -177.199814      -59.200336
 C         -65.069244     -175.258774      -61.336853
 C         -64.177048     -176.101562      -59.090961
 C         -63.830238     -175.666397      -60.472870
 H         -66.901505     -175.961884      -62.077473
 H         -65.763329     -177.302109      -62.051029
 H         -65.579597     -177.186172      -58.144623
 H         -64.802528     -178.216751      -59.340355
 H         -65.425789     -174.346146      -61.002773
 H         -64.682411     -175.064438      -62.372501
 H         -63.327007     -176.691727      -58.596897
 H         -64.537231     -175.256165      -58.447563
 H         -63.071125     -174.822586      -60.493965
 H         -63.242516     -176.479019      -61.078884
