20
 generated by VMD
 C         -47.594524     -137.978821      -46.021671
 N         -47.294472     -137.505859      -46.990593
 H         -50.489685     -136.996780      -44.773815
 H         -47.889416     -138.571625      -45.214081
 C         -51.297855     -137.760239      -44.787258
 C         -51.320877     -138.463882      -46.047295
 C         -52.596821     -137.548309      -44.038853
 C         -52.332348     -139.613297      -46.086994
 C         -53.496311     -138.699448      -44.073441
 C         -53.627678     -139.206223      -45.515190
 H         -50.326504     -138.773239      -46.432564
 H         -51.663261     -137.743637      -46.904751
 H         -52.319016     -137.445557      -43.000271
 H         -53.081799     -136.582504      -44.218559
 H         -51.937790     -140.474808      -45.406216
 H         -52.374794     -140.137695      -47.073196
 H         -54.404884     -138.531021      -43.608353
 H         -53.149437     -139.522034      -43.411366
 H         -54.304741     -140.050537      -45.655663
 H         -54.005245     -138.324783      -46.200832
