20
 generated by VMD
 C         -75.707611     -202.319824      -66.304337
 N         -76.531761     -202.779907      -65.635010
 H         -75.840981     -200.109756      -68.969345
 H         -74.828827     -201.879623      -66.730293
 C         -74.879303     -199.550308      -68.968506
 C         -74.878120     -198.171066      -68.488403
 C         -73.862213     -199.927795      -70.077026
 C         -73.434723     -197.728943      -68.369133
 C         -73.295532     -198.714615      -70.815781
 C         -72.651573     -197.853806      -69.742821
 H         -75.485481     -198.205551      -67.559799
 H         -75.413712     -197.472641      -69.288773
 H         -73.014587     -200.408218      -69.558327
 H         -74.288368     -200.818329      -70.691841
 H         -72.996193     -198.338989      -67.569603
 H         -73.413185     -196.750214      -67.873222
 H         -74.219566     -198.204788      -71.230156
 H         -72.466217     -198.775620      -71.599892
 H         -71.738724     -198.291702      -69.516205
 H         -72.383789     -196.798798      -70.164680
