20
 generated by VMD
 C         -69.885864     -183.111252      -65.900269
 N         -71.000420     -182.940659      -65.737572
 H         -67.290077     -183.396881      -63.200691
 H         -68.838318     -183.192078      -65.976212
 C         -67.290451     -182.960754      -62.202435
 C         -67.762253     -183.650406      -60.984104
 C         -67.421463     -181.414673      -62.111469
 C         -66.897926     -183.237289      -59.712818
 C         -66.462151     -181.045425      -60.981968
 C         -66.744873     -181.725403      -59.610569
 H         -67.782021     -184.754425      -61.035965
 H         -68.870201     -183.463821      -60.599529
 H         -67.213112     -181.075165      -63.115677
 H         -68.457794     -181.115280      -61.732613
 H         -65.986328     -183.732483      -59.668732
 H         -67.337181     -183.695801      -58.843048
 H         -66.530983     -179.927979      -60.864376
 H         -65.412178     -181.327911      -61.103485
 H         -66.078613     -181.464066      -58.803555
 H         -67.718071     -181.346039      -59.377953
