20
 generated by VMD
 C         -57.617180     -165.308594      -56.569496
 N         -57.229481     -164.445618      -57.206768
 H         -60.273624     -164.609375      -53.908077
 H         -58.035015     -166.096390      -56.014111
 C         -61.335327     -164.701065      -54.311565
 C         -61.917484     -166.085114      -54.208801
 C         -61.607693     -164.015244      -55.657444
 C         -63.429558     -165.933029      -54.340775
 C         -63.130005     -163.997879      -55.947983
 C         -63.831837     -165.324249      -55.751537
 H         -61.554745     -166.694412      -53.333740
 H         -61.506172     -166.733093      -54.961075
 H         -61.284103     -162.975693      -55.623871
 H         -61.069233     -164.464966      -56.527439
 H         -63.789955     -165.147339      -53.707916
 H         -63.909077     -166.870987      -54.109516
 H         -63.335754     -163.617310      -56.910248
 H         -63.628906     -163.249756      -55.236465
 H         -64.963539     -165.262421      -55.656696
 H         -63.492989     -166.082230      -56.506847
