20
 generated by VMD
 C         -60.814262     -154.384384      -51.194317
 N         -61.210045     -154.203079      -52.332504
 H         -57.413235     -153.808685      -52.728539
 H         -60.373463     -154.483795      -50.213657
 C         -56.621655     -153.659332      -52.005539
 C         -57.075111     -153.844345      -50.602745
 C         -55.587479     -152.657227      -52.463161
 C         -55.847630     -154.279968      -49.833214
 C         -54.418865     -153.088348      -51.474495
 C         -54.773449     -153.144394      -49.949322
 H         -57.730408     -154.702469      -50.386650
 H         -57.389523     -152.933517      -50.113777
 H         -55.360607     -152.824280      -53.502975
 H         -55.920246     -151.632141      -52.295738
 H         -55.388557     -155.176712      -50.295761
 H         -56.242496     -154.461624      -48.853603
 H         -53.759808     -152.192139      -51.731148
 H         -53.872192     -153.953430      -51.732803
 H         -53.867195     -153.321136      -49.417652
 H         -55.312012     -152.265442      -49.600048
