20
 generated by VMD
 C         -38.687664     -111.785378      -35.947239
 N         -38.468735     -111.147385      -36.901157
 H         -40.554039     -114.692963      -34.880524
 H         -38.976200     -112.123283      -34.991840
 C         -41.574898     -114.417259      -35.326988
 C         -41.775200     -114.384903      -36.823311
 C         -42.188568     -113.361618      -34.441032
 C         -43.303074     -114.405853      -37.042187
 C         -43.681835     -113.146751      -34.779243
 C         -43.917946     -113.184181      -36.397186
 H         -41.332569     -115.237679      -37.281612
 H         -41.361259     -113.585869      -37.429844
 H         -42.081196     -113.662628      -33.381855
 H         -41.733799     -112.360046      -34.506550
 H         -43.689495     -115.287094      -36.627914
 H         -43.387634     -114.499016      -38.145084
 H         -44.322517     -112.341034      -34.298325
 H         -44.283253     -113.962479      -34.242340
 H         -44.966457     -113.294800      -36.538498
 H         -43.644341     -112.205315      -36.682724
