20
 generated by VMD
 C         -55.826599     -149.122925      -45.800026
 N         -55.496487     -149.901123      -44.979668
 H         -54.802364     -148.162033      -48.397602
 H         -56.315674     -148.436935      -46.501545
 C         -54.199612     -147.351059      -48.741493
 C         -53.111691     -147.404541      -49.863060
 C         -54.877071     -145.986969      -48.478424
 C         -53.489895     -146.637375      -51.141846
 C         -55.188274     -145.342224      -49.818966
 C         -54.060753     -145.255402      -50.794189
 H         -52.933388     -148.443604      -50.191013
 H         -52.128380     -146.890213      -49.485245
 H         -55.752361     -146.152176      -47.828514
 H         -54.085087     -145.346725      -47.843189
 H         -54.311871     -147.198029      -51.725906
 H         -52.669418     -146.395828      -51.880680
 H         -55.733093     -144.304871      -49.570141
 H         -56.056736     -145.753662      -50.287617
 H         -54.478157     -144.812988      -51.746689
 H         -53.284130     -144.535751      -50.487240
