20
 generated by VMD
 C         -51.526955     -129.771530      -45.200848
 N         -51.666729     -130.000549      -46.360889
 H         -48.332748     -130.169800      -43.442684
 H         -51.129169     -129.567657      -44.172363
 C         -47.892120     -130.363953      -42.482380
 C         -48.034874     -131.773880      -41.909950
 C         -47.547493     -129.220062      -41.698296
 C         -46.801643     -132.019562      -41.090782
 C         -46.282356     -129.502487      -40.972843
 C         -46.397263     -130.878723      -40.217152
 H         -48.076176     -132.611771      -42.602436
 H         -48.886021     -131.871994      -41.165695
 H         -47.354069     -128.262344      -42.328785
 H         -48.395374     -128.943146      -41.019276
 H         -46.051098     -132.179016      -41.891777
 H         -47.123756     -132.935455      -40.527039
 H         -45.917557     -128.829269      -40.204903
 H         -45.432457     -129.640152      -41.656368
 H         -45.493401     -131.141251      -39.651390
 H         -47.150288     -130.695755      -39.412949
