20
 generated by VMD
 C         -38.120934     -107.957802      -36.961071
 N         -38.463043     -108.304657      -37.990517
 H         -41.226231     -108.851021      -35.725182
 H         -37.646179     -107.742050      -36.009281
 C         -41.165154     -109.457733      -34.813133
 C         -40.338467     -110.759407      -34.997013
 C         -42.424263     -109.788269      -33.962002
 C         -40.090752     -111.571243      -33.721581
 C         -42.205971     -110.676735      -32.728867
 C         -41.395588     -111.893333      -33.111858
 H         -39.305882     -110.445999      -35.399323
 H         -40.756546     -111.408295      -35.844723
 H         -42.909283     -108.870651      -33.586937
 H         -43.142155     -110.340271      -34.512428
 H         -39.428814     -110.944580      -33.178669
 H         -39.461330     -112.522774      -33.842472
 H         -43.278549     -110.983055      -32.333065
 H         -41.624870     -110.247734      -31.870897
 H         -41.282528     -112.483025      -32.184177
 H         -41.932510     -112.351616      -33.875389
