20
 generated by VMD
 C          -2.494433       -8.636754        0.065031
 N          -1.542611       -8.807196       -0.540352
 H          -2.696347       -9.869292        2.925689
 H          -1.869509      -11.243397        3.552524
 C          -2.858399      -10.930968        3.166741
 C          -3.210232      -11.812458        1.998327
 C          -3.910380      -10.992484        4.249166
 C          -3.259818      -13.267681        2.512963
 C          -4.063669      -12.457683        4.759419
 C          -4.288057      -13.429098        3.670270
 H          -2.449429      -11.666297        1.191954
 H          -4.144313      -11.465168        1.557524
 H          -3.566880      -10.430800        5.158310
 H          -4.934455      -10.618426        4.027833
 H          -2.242362      -13.504766        2.835241
 H          -3.426286      -13.875180        1.609788
 H          -4.884387      -12.567361        5.500494
 H          -3.094201      -12.652011        5.239958
 H          -4.252594      -14.465307        4.018694
 H          -5.310124      -13.345169        3.296635
