20
 generated by VMD
 C         -29.503136      -74.746468      -19.664925
 N         -30.528996      -74.448570      -20.195715
 H         -25.920849      -73.504326      -18.809879
 H         -28.567356      -74.614655      -19.300028
 C         -25.660297      -73.463387      -19.887798
 C         -25.376907      -74.608032      -20.685894
 C         -25.437725      -72.106049      -20.500463
 C         -25.938061      -74.513008      -22.096329
 C         -25.984999      -71.926315      -21.929014
 C         -25.812321      -73.221542      -22.818428
 H         -25.796581      -75.433456      -20.264622
 H         -24.296154      -74.675674      -20.722816
 H         -25.887014      -71.492500      -19.665306
 H         -24.380297      -71.978966      -20.577391
 H         -27.012638      -74.727859      -22.004591
 H         -25.451666      -75.301994      -22.662285
 H         -25.652321      -71.053398      -22.568373
 H         -27.155046      -71.969009      -21.812061
 H         -26.548950      -73.277229      -23.657028
 H         -24.850368      -73.105362      -23.225910
