20
 generated by VMD
 C         -68.991348     -181.048676      -61.224972
 N         -69.937019     -180.683228      -60.700695
 H         -67.349953     -178.616058      -59.542542
 H         -68.143440     -181.494736      -61.786999
 C         -66.444229     -177.972763      -59.799267
 C         -65.830940     -178.201431      -61.186844
 C         -65.330772     -177.450058      -58.791519
 C         -64.993622     -176.946472      -61.703712
 C         -64.685722     -176.233047      -59.377773
 C         -64.053391     -176.262726      -60.693581
 H         -66.511475     -178.405457      -62.012859
 H         -65.095444     -178.965714      -61.176983
 H         -65.882668     -177.206390      -57.831047
 H         -64.668480     -178.241226      -58.556129
 H         -65.629112     -176.263779      -62.242542
 H         -64.307579     -177.258163      -62.519062
 H         -64.036026     -175.692245      -58.732933
 H         -65.606453     -175.640488      -59.401657
 H         -63.708405     -175.290939      -61.126743
 H         -63.158535     -176.825394      -60.733929
