20
 generated by VMD
 C         -67.074524     -177.810699      -57.204205
 N         -67.775597     -178.641373      -56.811222
 H         -64.173126     -176.198059      -59.019562
 H         -66.369507     -176.993286      -57.425110
 C         -64.140381     -175.160446      -59.419987
 C         -65.429024     -174.437057      -59.540077
 C         -63.321682     -174.739151      -60.567299
 C         -65.304443     -172.935669      -59.447456
 C         -62.987621     -173.124863      -60.317387
 C         -64.254333     -172.305878      -60.304394
 H         -66.137840     -174.799088      -58.770042
 H         -65.945229     -174.717499      -60.441208
 H         -62.301586     -175.217300      -60.530415
 H         -63.848721     -174.934433      -61.491947
 H         -65.468147     -172.555450      -58.466099
 H         -66.230476     -172.562454      -59.887711
 H         -62.299641     -172.713181      -61.146164
 H         -62.459660     -172.870605      -59.368359
 H         -64.014175     -171.300079      -59.993099
 H         -64.796539     -172.165146      -61.264336
