20
 generated by VMD
 C         -11.230507      -34.034847       -8.256762
 N         -10.876478      -33.770664       -9.259496
 H         -11.725249      -37.853897       -7.986980
 H         -12.366405      -37.110016       -6.576286
 C         -12.509834      -37.926716       -7.280501
 C         -12.485153      -39.295624       -6.586274
 C         -13.746908      -37.841331       -8.080116
 C         -13.718897      -39.597271       -5.805628
 C         -15.005237      -37.892460       -7.234321
 C         -15.036770      -39.247883       -6.462324
 H         -11.607425      -39.473465       -5.973003
 H         -12.267645      -40.008244       -7.400648
 H         -13.705618      -36.935883       -8.637650
 H         -13.837556      -38.589310       -8.918878
 H         -13.730547      -39.206135       -4.832916
 H         -13.705456      -40.679363       -5.541108
 H         -15.875577      -37.824001       -7.831308
 H         -15.028997      -37.043701       -6.451127
 H         -15.826478      -39.255714       -5.696989
 H         -15.282274      -40.089561       -7.181720
