20
 generated by VMD
 C         -67.531715     -180.039185      -58.333485
 N         -68.375320     -180.011002      -59.126049
 H         -67.330002     -176.453888      -59.752388
 H         -66.830345     -180.113174      -57.524174
 C         -66.374031     -176.191879      -60.160778
 C         -66.096619     -175.323715      -61.415840
 C         -65.175583     -176.734100      -59.356750
 C         -64.813927     -174.492188      -61.246082
 C         -64.003494     -175.785431      -59.212265
 C         -63.660683     -175.196976      -60.500858
 H         -67.008804     -174.779724      -61.756126
 H         -65.852692     -176.014160      -62.250458
 H         -65.646706     -177.098114      -58.404705
 H         -64.893906     -177.625443      -59.908813
 H         -64.978806     -173.689682      -60.542175
 H         -64.507759     -174.093094      -62.216778
 H         -63.143181     -176.238037      -58.772877
 H         -64.272263     -174.964401      -58.455410
 H         -62.860622     -174.490601      -60.159985
 H         -63.233322     -175.974854      -61.153339
