20
 generated by VMD
 C         -68.494637     -185.320923      -66.929123
 N         -67.720100     -186.187469      -66.989319
 H         -69.925903     -184.478363      -64.351822
 H         -69.110199     -184.507050      -66.740326
 C         -69.649796     -185.063919      -63.445103
 C         -70.777420     -185.147552      -62.522053
 C         -68.279617     -185.680206      -63.167976
 C         -70.382896     -185.387650      -61.095581
 C         -68.175072     -186.372116      -61.783680
 C         -69.530518     -186.671646      -61.017414
 H         -71.421837     -186.003159      -62.861717
 H         -71.502197     -184.264496      -62.482887
 H         -68.076813     -186.192581      -64.081993
 H         -67.590973     -184.769501      -63.104759
 H         -71.240715     -185.550369      -60.404987
 H         -69.863129     -184.474075      -60.598450
 H         -67.568405     -185.696640      -61.130009
 H         -67.651482     -187.364502      -61.746986
 H         -70.088249     -187.346603      -61.685734
 H         -69.404343     -186.902069      -60.009300
