20
 generated by VMD
 C          -3.426532      -19.563463        3.109836
 N          -3.598398      -18.458685        3.133679
 H          -5.501932      -20.482237       -0.075407
 H          -6.476237      -21.245584       -1.239428
 C          -6.238025      -20.265024       -0.826241
 C          -5.579552      -19.443197       -1.864066
 C          -7.499765      -19.687315       -0.216385
 C          -6.570329      -19.094351       -2.952666
 C          -8.605046      -19.545471       -1.310598
 C          -8.004652      -18.731203       -2.470459
 H          -4.745619      -19.990719       -2.392695
 H          -5.193153      -18.599789       -1.398187
 H          -7.911644      -20.444700        0.541480
 H          -7.287411      -18.659071        0.294843
 H          -6.773155      -19.966440       -3.632621
 H          -6.149999      -18.319126       -3.664962
 H          -9.570846      -19.112848       -0.905468
 H          -8.836689      -20.558361       -1.673551
 H          -8.618264      -18.714941       -3.349359
 H          -7.882922      -17.730934       -2.057725
