20
 generated by VMD
 C         -49.992149     -127.748329      -40.634495
 N         -50.917984     -128.027008      -41.263023
 H         -47.572727     -127.477570      -41.425838
 H         -49.333881     -127.469307      -39.805717
 C         -46.748600     -126.905411      -41.055691
 C         -45.722538     -127.388474      -40.158848
 C         -46.869427     -125.361748      -41.385780
 C         -44.366291     -126.814240      -40.675133
 C         -45.472466     -124.948662      -41.818325
 C         -44.366859     -125.376541      -40.922928
 H         -45.649639     -128.455811      -40.119526
 H         -45.707443     -127.066582      -39.055538
 H         -47.611607     -125.179871      -42.248764
 H         -47.165432     -124.821609      -40.511642
 H         -44.180450     -127.469330      -41.520454
 H         -43.526054     -127.095314      -40.042553
 H         -45.504608     -123.835999      -41.902363
 H         -45.141468     -125.430916      -42.722797
 H         -43.380482     -125.023026      -41.380157
 H         -44.548782     -124.889519      -39.959103
