20
 generated by VMD
 C         -64.182991     -175.116608      -55.934704
 N         -63.328857     -175.415146      -56.625664
 H         -65.876480     -173.978973      -58.500748
 H         -65.011482     -174.932419      -55.285152
 C         -65.184990     -173.088913      -58.678238
 C         -65.578163     -171.768784      -58.267830
 C         -64.486984     -173.078781      -59.937252
 C         -64.488716     -170.637390      -58.360756
 C         -63.099140     -172.270462      -59.902378
 C         -63.426228     -170.702255      -59.566795
 H         -65.904785     -171.886368      -57.152199
 H         -66.446495     -171.478104      -58.795891
 H         -64.254265     -174.145782      -60.227852
 H         -65.070206     -172.500137      -60.767517
 H         -63.901546     -170.880600      -57.456207
 H         -64.970039     -169.669815      -58.130711
 H         -62.625755     -172.565277      -60.852131
 H         -62.358566     -172.642685      -59.174416
 H         -62.522247     -170.142380      -59.375984
 H         -63.863831     -170.257690      -60.424835
