20
 generated by VMD
 C         -21.346701      -56.157894      -17.488922
 N         -20.763186      -55.268776      -17.901529
 H         -23.231497      -58.652863      -15.561806
 H         -22.007727      -56.686562      -16.654879
 C         -22.428978      -59.324642      -15.205579
 C         -21.767868      -59.014622      -13.848505
 C         -21.737820      -60.091003      -16.232330
 C         -20.896425      -60.033283      -13.277119
 C         -20.351740      -60.567265      -15.640210
 C         -20.541777      -61.151947      -14.290397
 H         -22.619715      -58.750645      -13.199107
 H         -21.239172      -58.109539      -13.782789
 H         -22.313538      -60.940022      -16.623817
 H         -21.516872      -59.405125      -17.041784
 H         -21.504194      -60.559494      -12.458247
 H         -19.990398      -59.755173      -12.709018
 H         -19.439367      -59.970146      -15.775743
 H         -20.173523      -61.435902      -16.288218
 H         -21.309444      -61.947155      -14.308974
 H         -19.620096      -61.564644      -13.938016
