20
 generated by VMD
 C         -31.708723      -78.928658      -26.476463
 N         -31.011410      -78.042252      -26.866377
 H         -28.917978      -80.491745      -25.085482
 H         -32.437660      -79.501129      -26.021591
 C         -28.815548      -81.158821      -24.151890
 C         -27.606215      -81.028313      -23.256960
 C         -29.940754      -82.149986      -23.778559
 C         -27.936625      -81.112663      -21.835861
 C         -30.225113      -82.162987      -22.262577
 C         -28.881136      -82.417900      -21.506298
 H         -26.985317      -80.100212      -23.550060
 H         -26.943411      -81.879295      -23.517933
 H         -30.918850      -81.928055      -24.284906
 H         -29.528294      -83.026733      -24.229965
 H         -28.471428      -80.229759      -21.564541
 H         -26.986277      -81.126129      -21.308456
 H         -30.969227      -83.030029      -22.014904
 H         -30.707256      -81.204659      -21.967655
 H         -29.121639      -82.514160      -20.425076
 H         -28.389303      -83.341560      -21.993370
