20
 generated by VMD
 C         -69.392418     -185.054871      -66.630592
 N         -69.214249     -185.018860      -67.785378
 H         -69.366920     -183.306763      -63.370983
 H         -69.635979     -185.145126      -65.528656
 C         -69.204880     -183.325409      -62.282551
 C         -69.776138     -184.417801      -61.422028
 C         -68.228165     -182.443802      -61.520210
 C         -68.544518     -185.265717      -60.998032
 C         -66.962219     -183.434830      -61.339607
 C         -67.247803     -184.627716      -60.417614
 H         -70.529099     -185.119873      -61.877350
 H         -70.369812     -183.919113      -60.709896
 H         -67.916550     -181.495117      -62.000664
 H         -68.816261     -182.160675      -60.546864
 H         -68.361298     -185.861542      -61.843220
 H         -68.844902     -185.972061      -60.246746
 H         -66.157730     -182.978470      -60.782139
 H         -66.579910     -183.595490      -62.381588
 H         -66.374367     -185.473297      -60.347523
 H         -67.532227     -184.317749      -59.408165
