20
 generated by VMD
 C          -9.315777      -24.654259        0.975227
 N          -9.902133      -25.366768        1.612319
 H          -6.739569      -23.096928       -0.698150
 H          -8.295076      -22.695269       -1.327887
 C          -7.310676      -23.040722       -1.662480
 C          -7.458919      -24.381752       -2.384471
 C          -6.565848      -21.984243       -2.460947
 C          -7.987269      -24.121498       -3.799361
 C          -7.075355      -21.802896       -3.876633
 C          -7.190228      -23.111921       -4.559209
 H          -8.320726      -24.992447       -1.862391
 H          -6.498839      -24.929472       -2.449982
 H          -6.680302      -21.049858       -1.901676
 H          -5.513830      -22.247099       -2.370748
 H          -8.996893      -23.713772       -3.716453
 H          -7.926456      -25.081980       -4.367926
 H          -6.377700      -21.166674       -4.431489
 H          -8.057298      -21.272587       -3.906768
 H          -7.621457      -22.945410       -5.529989
 H          -6.216014      -23.500330       -4.858443
