20
 generated by VMD
 C         -70.160591     -183.334366      -65.626518
 N         -69.403870     -182.507263      -65.962990
 H         -67.684433     -184.949707      -63.087952
 H         -70.889030     -184.133911      -65.320084
 C         -67.827789     -184.263901      -62.245892
 C         -68.135803     -184.624191      -60.778984
 C         -67.997688     -182.843018      -62.599152
 C         -67.374794     -183.624344      -59.876583
 C         -67.157906     -181.957275      -61.785774
 C         -67.399872     -182.163284      -60.301357
 H         -67.763542     -185.593246      -60.546005
 H         -69.131134     -184.828079      -60.389576
 H         -67.655502     -182.877792      -63.703995
 H         -69.050468     -182.542313      -62.438293
 H         -66.301865     -183.946472      -60.022694
 H         -67.570992     -183.686783      -58.736839
 H         -67.267921     -180.880798      -62.109764
 H         -66.067413     -182.289139      -61.807102
 H         -66.551956     -181.651443      -59.858894
 H         -68.186172     -181.559448      -59.951916
