20
 generated by VMD
 C          -5.855929      -21.178734        2.026309
 N          -6.238260      -22.032427        1.408077
 H          -5.141802      -18.763508       -0.979680
 H          -6.031209      -20.021023       -0.038858
 C          -5.856409      -19.558084       -1.042984
 C          -5.544299      -20.679308       -2.012566
 C          -7.150160      -18.859417       -1.417925
 C          -6.704823      -21.697344       -2.131641
 C          -8.237925      -19.882936       -1.555341
 C          -7.972979      -20.967867       -2.548896
 H          -4.590595      -21.156441       -1.663773
 H          -5.289613      -20.368534       -3.036026
 H          -7.446673      -18.084455       -0.747175
 H          -7.084434      -18.233246       -2.244854
 H          -6.896843      -22.276262       -1.199811
 H          -6.403674      -22.412550       -2.902593
 H          -9.133393      -19.377403       -1.857004
 H          -8.416920      -20.318941       -0.558662
 H          -8.824205      -21.646481       -2.672085
 H          -7.910593      -20.549576       -3.550051
