20
 generated by VMD
 C         -19.827932      -61.439060      -16.800097
 N         -19.743303      -60.520599      -16.121582
 H         -22.083836      -62.324059      -18.188700
 H         -19.945730      -62.140881      -17.548504
 C         -22.849178      -62.913868      -17.762730
 C         -24.057726      -63.264458      -18.611858
 C         -22.824444      -62.911835      -16.256540
 C         -24.583672      -64.645882      -18.157276
 C         -23.458118      -64.283501      -15.846390
 C         -24.720249      -64.796906      -16.633728
 H         -23.817820      -63.350018      -19.680037
 H         -24.753908      -62.472809      -18.578018
 H         -21.828936      -62.745342      -15.742027
 H         -23.329924      -62.047802      -15.954395
 H         -23.914301      -65.392235      -18.489969
 H         -25.590017      -64.823418      -18.474697
 H         -23.863302      -64.083656      -14.822462
 H         -22.732191      -65.112427      -15.679497
 H         -24.810287      -65.918831      -16.525936
 H         -25.653517      -64.293587      -16.467930
