20
 generated by VMD
 C         -72.847977     -199.015350      -65.616409
 N         -73.840805     -199.558121      -65.898224
 H         -71.123047     -196.649734      -67.233482
 H         -71.881920     -198.565277      -65.583557
 C         -72.118134     -196.548157      -67.662399
 C         -73.063507     -195.582535      -66.968040
 C         -72.405167     -196.957947      -69.037537
 C         -74.295578     -195.252914      -67.865829
 C         -73.899452     -197.341125      -69.246124
 C         -74.852562     -196.487915      -68.495590
 H         -72.658928     -194.669571      -66.615456
 H         -73.378967     -196.155991      -66.063156
 H         -72.143639     -196.100189      -69.668289
 H         -71.806175     -197.893616      -69.207397
 H         -74.074921     -194.526505      -68.697304
 H         -75.034973     -194.722656      -67.283646
 H         -73.922585     -198.341812      -68.888428
 H         -74.225410     -197.457657      -70.330757
 H         -75.710815     -196.298904      -69.245682
 H         -75.475639     -196.994080      -67.871239
