20
 generated by VMD
 C         -31.011223      -75.772964      -22.515614
 N         -31.090014      -74.762001      -23.129406
 H         -28.552570      -78.651459      -21.539213
 H         -30.717794      -76.801231      -22.182688
 C         -27.788179      -77.856964      -21.584538
 C         -26.767794      -78.152550      -22.540426
 C         -27.633755      -76.812698      -20.548929
 C         -26.160795      -76.892334      -23.122402
 C         -26.852345      -75.599083      -21.139175
 C         -25.690275      -75.970177      -22.035658
 H         -27.267809      -78.664879      -23.298615
 H         -25.967690      -78.711136      -22.065132
 H         -28.564262      -76.516022      -20.125290
 H         -26.988426      -77.174309      -19.680786
 H         -26.947969      -76.532829      -23.784845
 H         -25.284744      -77.216431      -23.673800
 H         -26.349339      -74.866783      -20.373987
 H         -27.598305      -74.953819      -21.702696
 H         -25.139631      -75.037239      -22.356079
 H         -24.924824      -76.507637      -21.446423
