20
 generated by VMD
 C          -1.707073      -13.015541        0.602083
 N          -1.010955      -13.865189        0.814941
 H          -3.695632      -14.656348        1.771381
 H          -4.639431      -14.390014        0.324271
 C          -4.588835      -14.983101        1.219406
 C          -5.872317      -14.738884        2.046968
 C          -4.419730      -16.467878        0.983397
 C          -7.117217      -15.334943        1.314428
 C          -5.647335      -17.069973        0.296585
 C          -6.982197      -16.790022        0.877429
 H          -5.971239      -13.653775        2.209017
 H          -5.622238      -15.077019        3.106241
 H          -3.614750      -16.581686        0.258667
 H          -4.160598      -17.017073        1.928254
 H          -7.242995      -14.757149        0.413201
 H          -8.039130      -15.228004        1.837876
 H          -5.479453      -18.128492        0.246289
 H          -5.582880      -16.711771       -0.708475
 H          -7.822352      -17.186375        0.263991
 H          -7.049163      -17.301430        1.830765
