20
 generated by VMD
 C         -31.901070      -76.298012      -24.546885
 N         -31.643618      -76.782043      -25.598261
 H         -28.986380      -76.749786      -22.059517
 H         -32.277828      -75.861855      -23.626762
 C         -28.559315      -77.771782      -22.178806
 C         -27.595858      -78.098152      -23.284962
 C         -28.470442      -78.672989      -20.987741
 C         -26.080095      -78.146652      -22.709028
 C         -27.037382      -78.598114      -20.395889
 C         -26.105963      -79.120422      -21.482441
 H         -27.714409      -77.351601      -24.097439
 H         -27.828812      -79.090050      -23.682806
 H         -29.243801      -78.372421      -20.217810
 H         -28.864513      -79.618309      -21.272949
 H         -25.857616      -77.163574      -22.356384
 H         -25.396702      -78.495842      -23.481771
 H         -26.915321      -79.217300      -19.531893
 H         -26.753609      -77.586533      -20.183678
 H         -25.079849      -79.474754      -21.140186
 H         -26.517981      -80.043640      -21.857094
