20
 generated by VMD
 C         -40.063690     -107.307640      -37.760998
 N         -39.132473     -106.593620      -37.865932
 H         -39.144958     -108.504395      -34.969185
 H         -40.833294     -108.088570      -37.878319
 C         -39.665791     -109.081894      -34.220425
 C         -38.954189     -110.082367      -33.476456
 C         -41.079964     -108.945892      -34.205330
 C         -39.708961     -110.880951      -32.390934
 C         -41.789616     -109.662880      -33.007675
 C         -41.254314     -111.042824      -32.784878
 H         -38.131123     -109.537346      -32.833519
 H         -38.359547     -110.819641      -34.143116
 H         -41.309608     -107.931366      -34.222397
 H         -41.401375     -109.432320      -35.125980
 H         -39.690285     -110.391739      -31.485506
 H         -39.166077     -111.876648      -32.345062
 H         -42.904327     -109.509315      -33.102173
 H         -41.631592     -109.024330      -32.123775
 H         -41.891117     -111.657967      -31.996273
 H         -41.309799     -111.471687      -33.736897
