20
 generated by VMD
 C         -10.208001      -24.733669       -0.575880
 N         -11.319796      -24.878616       -0.594381
 H          -6.279776      -25.361639       -0.965324
 H          -7.986502      -25.167530       -1.230996
 C          -6.973523      -25.037270       -1.758947
 C          -6.812397      -25.853365       -3.037610
 C          -6.843911      -23.536671       -1.994009
 C          -7.946667      -25.407827       -4.016268
 C          -7.981940      -23.041790       -3.063923
 C          -7.856473      -23.944061       -4.371557
 H          -7.028260      -26.910839       -2.706644
 H          -5.802330      -25.810667       -3.509419
 H          -6.990921      -23.054403       -1.062243
 H          -5.833527      -23.308500       -2.389874
 H          -8.900318      -25.646313       -3.605014
 H          -7.849231      -25.921831       -4.965519
 H          -7.759155      -21.978407       -3.272363
 H          -9.005159      -23.149872       -2.666234
 H          -8.748557      -23.718405       -4.920257
 H          -6.880214      -23.775539       -4.911595
