20
 generated by VMD
 C         -41.514046     -119.688293      -34.241280
 N         -41.614506     -120.452179      -35.153233
 H         -43.325768     -118.695862      -36.732533
 H         -41.635189     -118.996155      -33.460747
 C         -43.786705     -118.423668      -37.696972
 C         -43.044579     -118.332184      -39.032825
 C         -45.121681     -117.811249      -37.824821
 C         -43.832542     -118.689240      -40.316757
 C         -45.977959     -118.115044      -39.099239
 C         -45.207951     -117.918381      -40.389133
 H         -42.165642     -118.997078      -39.015682
 H         -42.789444     -117.340416      -39.193508
 H         -45.578259     -118.290054      -36.876534
 H         -45.186123     -116.733170      -37.649998
 H         -44.069851     -119.715851      -40.343925
 H         -43.198517     -118.608734      -41.226955
 H         -46.834759     -117.426414      -39.141850
 H         -46.488419     -119.162918      -39.205360
 H         -45.647102     -118.203072      -41.405369
 H         -44.986504     -116.870415      -40.654545
