20
 generated by VMD
 C         -80.064339     -205.458313      -71.522812
 N         -80.103180     -206.643082      -71.514069
 H         -77.350807     -203.193069      -70.198372
 H         -80.098961     -204.444656      -71.284126
 C         -76.299744     -203.391296      -70.238953
 C         -75.165627     -202.467041      -70.624229
 C         -76.011032     -204.831253      -70.121033
 C         -73.734497     -203.015045      -70.433914
 C         -74.921188     -205.117401      -69.143997
 C         -73.586891     -204.353485      -69.576942
 H         -75.276161     -201.661804      -69.870918
 H         -75.274902     -202.024887      -71.645111
 H         -76.854958     -205.323227      -69.637558
 H         -75.894333     -205.162109      -71.129799
 H         -72.900047     -202.356750      -70.154602
 H         -73.408356     -203.333786      -71.416969
 H         -74.671623     -206.243958      -69.197937
 H         -75.252930     -204.859726      -68.176826
 H         -73.008873     -204.157089      -68.660370
 H         -72.995003     -205.145874      -69.988914
