20
 generated by VMD
 C         -11.937691      -37.773262       -7.813895
 N         -11.108090      -37.652702       -7.116367
 H         -12.516622      -41.534424       -8.785134
 H         -13.382569      -40.445789       -7.630399
 C         -13.544184      -41.168259       -8.441381
 C         -14.409844      -42.368679       -8.044532
 C         -14.154929      -40.397488       -9.687490
 C         -15.863668      -42.000172       -7.908796
 C         -15.538670      -39.839962       -9.250082
 C         -16.471106      -41.019230       -8.987758
 H         -14.072122      -42.735214       -7.056726
 H         -14.377019      -43.175770       -8.808799
 H         -13.579536      -39.504787       -9.932757
 H         -14.307803      -41.062580      -10.548120
 H         -15.903228      -41.494492       -6.957735
 H         -16.512278      -42.910702       -7.842091
 H         -15.958685      -39.134651       -9.908206
 H         -15.286742      -39.205433       -8.331750
 H         -17.421379      -40.700451       -8.585257
 H         -16.738010      -41.531464       -9.927247
