20
 generated by VMD
 C         -14.054193      -28.783766       -7.356133
 N         -13.296525      -28.946680       -8.157471
 H         -11.748325      -30.378548       -4.694994
 H         -10.174438      -30.013168       -3.966778
 C         -10.743876      -30.802536       -4.390912
 C          -9.944263      -31.417070       -5.504182
 C         -10.989052      -31.812258       -3.248054
 C          -8.742116      -32.142021       -4.987165
 C          -9.674590      -32.439056       -2.670955
 C          -8.858601      -33.031075       -3.822384
 H          -9.509888      -30.663542       -6.158226
 H         -10.656179      -32.043575       -6.161403
 H         -11.541313      -31.322584       -2.388830
 H         -11.623318      -32.642544       -3.625251
 H          -8.004786      -31.332891       -4.755174
 H          -8.325676      -32.609646       -5.883717
 H          -9.884321      -33.199421       -1.901599
 H          -9.127735      -31.592705       -2.199007
 H          -7.851790      -33.285694       -3.488433
 H          -9.340510      -33.949543       -4.058001
