20
 generated by VMD
 C         -59.253662     -151.985504      -49.202862
 N         -58.818661     -152.249374      -50.197323
 H         -56.215221     -150.660690      -48.117176
 H         -59.783195     -151.704895      -48.346272
 C         -55.804958     -150.423325      -49.066879
 C         -54.750137     -151.325150      -49.739334
 C         -55.433613     -148.973068      -49.246830
 C         -54.239017     -150.884811      -51.107201
 C         -54.749119     -148.525070      -50.550274
 C         -53.708035     -149.517624      -50.992054
 H         -55.063721     -152.354263      -49.724255
 H         -53.795349     -151.548233      -49.132343
 H         -56.394993     -148.468445      -49.061153
 H         -54.755520     -148.814392      -48.433094
 H         -54.937359     -151.009659      -51.961140
 H         -53.420540     -151.558960      -51.308659
 H         -54.314617     -147.574844      -50.447685
 H         -55.586113     -148.655762      -51.404842
 H         -53.362759     -149.263428      -52.063431
 H         -52.869648     -149.457367      -50.273895
