20
 generated by VMD
 C         -58.562801     -162.024338      -56.459702
 N         -57.462040     -161.581253      -56.342743
 H         -59.421352     -164.635712      -55.478485
 H         -59.577858     -162.396057      -56.445667
 C         -60.265266     -164.076385      -54.938683
 C         -60.056454     -163.723602      -53.530907
 C         -61.660873     -164.470032      -55.494526
 C         -61.195560     -162.751755      -53.124722
 C         -62.653412     -163.334137      -55.044334
 C         -62.671604     -162.980362      -53.554260
 H         -59.106567     -163.191696      -53.373833
 H         -59.862022     -164.680161      -52.900936
 H         -61.675816     -164.525055      -56.580509
 H         -61.951401     -165.477661      -55.114456
 H         -60.778450     -161.858551      -53.643536
 H         -61.079029     -162.576004      -52.059040
 H         -63.620998     -163.467636      -55.386948
 H         -62.524563     -162.415451      -55.630863
 H         -63.135670     -161.995132      -53.304970
 H         -63.046745     -163.796143      -52.967350
