20
 generated by VMD
 C         -68.460060     -185.390167      -67.356857
 N         -67.636475     -185.211823      -66.550461
 H         -69.238327     -187.041611      -64.925621
 H         -69.278900     -185.575012      -68.097137
 C         -69.540550     -186.927704      -63.864269
 C         -70.307892     -185.725571      -63.438068
 C         -69.648575     -188.085144      -62.994602
 C         -69.785370     -185.345749      -62.074772
 C         -69.342720     -187.722473      -61.487309
 C         -70.127533     -186.474380      -61.033669
 H         -71.440575     -185.840744      -63.419060
 H         -70.094742     -184.818832      -64.023682
 H         -70.743156     -188.470612      -63.106297
 H         -69.024269     -188.811157      -63.490498
 H         -70.291405     -184.391937      -61.748337
 H         -68.746864     -185.144302      -62.157501
 H         -68.202431     -187.655197      -61.398235
 H         -69.574974     -188.605682      -60.794865
 H         -71.289017     -186.405167      -61.213654
 H         -70.112625     -186.211029      -59.970066
