20
 generated by VMD
 C         -49.569370     -127.218506      -40.112446
 N         -49.411797     -126.852219      -39.026840
 H         -46.478943     -126.749496      -42.315178
 H         -49.950172     -127.526634      -41.091923
 C         -46.260006     -126.112045      -41.504932
 C         -45.265198     -126.650932      -40.556038
 C         -46.804813     -124.777084      -41.440346
 C         -44.124714     -125.643341      -40.594170
 C         -45.595284     -123.813255      -41.471649
 C         -44.578117     -124.149254      -40.279819
 H         -44.981972     -127.574768      -40.938835
 H         -45.670143     -126.722046      -39.496212
 H         -47.280289     -124.671326      -42.416046
 H         -47.418854     -124.506912      -40.688225
 H         -43.704304     -125.596535      -41.598938
 H         -43.345619     -125.993988      -39.938019
 H         -45.749825     -122.732018      -41.486324
 H         -44.928959     -123.845573      -42.388908
 H         -43.614033     -123.554451      -40.324814
 H         -45.047291     -124.015755      -39.303421
