20
 generated by VMD
 C         -68.275520     -179.520508      -58.468895
 N         -67.462273     -179.163391      -57.730309
 H         -66.214172     -176.301239      -59.039841
 H         -68.954468     -179.995651      -59.119286
 C         -65.428368     -175.788559      -59.668484
 C         -66.118950     -174.669037      -60.439720
 C         -64.016739     -176.049149      -59.623188
 C         -65.225456     -173.414703      -60.564850
 C         -63.164650     -174.778793      -59.629307
 C         -63.714127     -173.719528      -60.614964
 H         -67.040901     -174.365036      -59.978436
 H         -66.423805     -175.369705      -61.312210
 H         -63.753254     -176.581543      -58.730835
 H         -63.645950     -176.643753      -60.489082
 H         -65.566711     -172.682663      -59.822361
 H         -65.492538     -172.951157      -61.528866
 H         -62.068443     -174.995239      -59.568851
 H         -63.382210     -174.378113      -58.654198
 H         -63.126225     -172.810211      -60.515030
 H         -63.469704     -174.336517      -61.551308
