20
 generated by VMD
 C         -11.101449      -33.718761       -8.496391
 N         -10.930408      -33.044971       -9.400196
 H         -11.856308      -36.777485       -8.144080
 H         -12.162492      -36.013954       -6.561946
 C         -12.370748      -36.941818       -7.189580
 C         -11.945809      -38.277996       -6.473811
 C         -13.851045      -36.978256       -7.651160
 C         -12.895477      -38.545391       -5.284383
 C         -14.683158      -37.141079       -6.353253
 C         -14.364321      -38.478539       -5.708370
 H         -10.930135      -38.196785       -6.141668
 H         -11.868829      -39.049557       -7.253146
 H         -14.110877      -36.039032       -8.095790
 H         -14.092035      -37.745674       -8.411270
 H         -12.729839      -37.838734       -4.513603
 H         -12.687244      -39.501534       -4.742031
 H         -15.761084      -37.115711       -6.644526
 H         -14.465159      -36.283768       -5.632279
 H         -15.039508      -38.650002       -4.864338
 H         -14.474442      -39.368778       -6.397346
