20
 generated by VMD
 C         -22.410315      -68.129448      -16.561943
 N         -21.835962      -68.331566      -15.583564
 H         -24.344751      -66.484634      -17.909225
 H         -22.738913      -67.965393      -17.669624
 C         -24.614618      -66.469040      -18.961290
 C         -23.909281      -67.099266      -20.073530
 C         -26.179604      -66.521996      -18.912609
 C         -24.463484      -68.462029      -20.382986
 C         -26.700735      -68.000397      -19.089142
 C         -25.974987      -68.694191      -20.375654
 H         -22.805666      -67.244133      -19.733908
 H         -23.925714      -66.478302      -21.073893
 H         -26.403311      -66.100258      -17.927418
 H         -26.465328      -65.973000      -19.707647
 H         -24.050472      -69.111046      -19.572153
 H         -24.066044      -68.939751      -21.237772
 H         -27.819569      -68.210243      -19.148651
 H         -26.420946      -68.553635      -18.145357
 H         -26.215433      -69.754013      -20.246679
 H         -26.316315      -68.293411      -21.329081
