20
 generated by VMD
 C         -31.104412      -77.595879      -25.624027
 N         -31.647329      -77.958450      -26.649189
 H         -29.323559      -78.349274      -22.925743
 H         -30.630013      -77.380547      -24.730659
 C         -28.913977      -79.331429      -23.134972
 C         -27.482199      -79.549393      -23.390985
 C         -29.748955      -80.625450      -22.846014
 C         -26.880184      -80.194221      -22.161957
 C         -29.252172      -81.172096      -21.501902
 C         -27.721893      -81.211494      -21.332561
 H         -27.040321      -78.729599      -23.931915
 H         -27.300669      -80.346252      -24.171814
 H         -30.759928      -80.400085      -22.919817
 H         -29.530397      -81.445984      -23.620029
 H         -26.790413      -79.352943      -21.430525
 H         -25.908985      -80.647148      -22.342634
 H         -29.638700      -82.168396      -21.307358
 H         -29.594824      -80.618973      -20.645290
 H         -27.288988      -81.160583      -20.249071
 H         -27.409027      -82.242531      -21.678455
