20
 generated by VMD
 C         -77.382896     -202.923981      -69.377960
 N         -77.644814     -203.748322      -68.554527
 H         -75.187401     -201.951111      -67.163185
 H         -77.205414     -202.158585      -70.075729
 C         -74.693901     -201.331848      -67.975296
 C         -75.174652     -200.040802      -68.490753
 C         -73.912849     -202.156906      -68.906700
 C         -74.630791     -199.535538      -69.875443
 C         -73.247429     -201.541672      -70.042534
 C         -74.155472     -200.572479      -70.845184
 H         -75.082764     -199.242645      -67.733131
 H         -76.258232     -200.076309      -68.512711
 H         -73.146133     -202.540665      -68.166451
 H         -74.593864     -202.975098      -69.251015
 H         -73.736389     -198.807938      -69.749954
 H         -75.469345     -198.885483      -70.290146
 H         -72.794830     -202.292023      -70.717644
 H         -72.271309     -201.190781      -69.646187
 H         -73.477097     -200.101929      -71.591263
 H         -74.878372     -201.099335      -71.440720
