20
 generated by VMD
 C         -37.957630     -109.668915      -36.485218
 N         -37.444462     -108.874321      -35.839684
 H         -40.608044     -112.112152      -37.005146
 H         -38.680912     -110.429840      -36.864479
 C         -41.467091     -112.296883      -36.359222
 C         -42.335453     -113.591148      -36.448933
 C         -41.634254     -111.250603      -35.200569
 C         -42.910217     -114.046295      -35.095051
 C         -42.284000     -111.838928      -33.945244
 C         -43.326347     -112.999580      -34.154480
 H         -41.811710     -114.460365      -36.941059
 H         -43.203327     -113.397057      -37.134686
 H         -40.628098     -110.784958      -34.968136
 H         -42.306789     -110.456100      -35.731625
 H         -42.049187     -114.445526      -34.629158
 H         -43.825569     -114.766098      -35.224281
 H         -42.747684     -110.966301      -33.502346
 H         -41.640308     -112.203323      -33.204556
 H         -43.528290     -113.358742      -33.143223
 H         -44.331009     -112.506149      -34.518703
