20
 generated by VMD
 C         -47.335892     -138.914444      -45.648712
 N         -46.871803     -138.509018      -46.690857
 H         -50.722591     -138.181946      -44.714989
 H         -47.858089     -139.293655      -44.722980
 C         -51.594990     -138.752731      -45.067650
 C         -51.788746     -139.082047      -46.546352
 C         -52.855762     -138.418594      -44.354321
 C         -52.953693     -140.180145      -46.707466
 C         -54.098568     -139.364899      -44.608952
 C         -54.286530     -139.661041      -46.182545
 H         -50.901924     -139.557861      -46.869171
 H         -52.006683     -138.273575      -47.280025
 H         -52.620747     -138.449203      -43.310566
 H         -53.157299     -137.422287      -44.508827
 H         -52.483402     -141.091415      -46.341034
 H         -53.103077     -140.278290      -47.841892
 H         -54.895443     -138.919876      -43.926388
 H         -53.886242     -140.309433      -44.206608
 H         -55.140274     -140.261139      -46.397511
 H         -54.669098     -138.829590      -46.762688
