20
 generated by VMD
 C         -20.136555      -56.642384      -16.926435
 N         -21.001537      -56.430885      -16.123449
 H         -22.558216      -59.600780      -17.613651
 H         -19.289169      -56.784698      -17.638447
 C         -22.136271      -60.162792      -16.751740
 C         -22.738176      -59.608318      -15.490827
 C         -21.908829      -61.708920      -16.686712
 C         -21.782608      -59.793385      -14.269082
 C         -20.899307      -61.920341      -15.549883
 C         -21.387812      -61.315807      -14.239031
 H         -23.744703      -60.039867      -15.295211
 H         -22.987345      -58.495827      -15.643732
 H         -22.804516      -62.202049      -16.401869
 H         -21.666924      -62.101837      -17.691010
 H         -22.325508      -59.548103      -13.395117
 H         -20.862858      -59.242725      -14.321047
 H         -20.015860      -61.382526      -16.015648
 H         -20.481558      -62.955357      -15.506753
 H         -22.251986      -61.860600      -13.887687
 H         -20.539049      -61.378857      -13.507340
