20
 generated by VMD
 C         -79.484276     -205.421814      -70.911613
 N         -80.638046     -205.633804      -71.123138
 H         -77.045792     -203.221924      -69.677940
 H         -78.387962     -205.144302      -70.970406
 C         -75.949829     -203.088333      -69.733009
 C         -75.375519     -201.910812      -70.364929
 C         -75.377266     -204.474579      -69.466240
 C         -73.890968     -202.024887      -70.397545
 C         -73.951141     -204.150681      -68.968079
 C         -73.242340     -203.342087      -70.118172
 H         -75.625168     -201.000412      -69.737709
 H         -75.685257     -201.678726      -71.367439
 H         -75.939659     -204.912155      -68.644142
 H         -75.318901     -204.988907      -70.450165
 H         -73.466675     -201.212814      -69.801147
 H         -73.644386     -201.776169      -71.404930
 H         -73.498619     -205.149719      -68.756065
 H         -73.922234     -203.528702      -68.054558
 H         -72.293831     -203.233673      -69.774025
 H         -73.253433     -203.881973      -71.059059
