20
 generated by VMD
 C          -1.790781       -8.645634       -0.274463
 N          -2.251098       -7.886372        0.367231
 H          -3.127030       -9.427191        2.524865
 H          -1.795338      -10.556795        2.713109
 C          -2.908081      -10.391513        2.884182
 C          -3.816449      -11.391334        2.145925
 C          -3.201210      -10.418856        4.392623
 C          -3.494393      -12.797779        2.663942
 C          -2.906218      -11.848975        4.965847
 C          -3.632385      -12.930460        4.187772
 H          -3.613891      -11.334841        1.047106
 H          -4.885617      -11.220637        2.347593
 H          -2.656030       -9.673997        5.062754
 H          -4.235894      -10.050551        4.551607
 H          -2.406906      -12.994911        2.554307
 H          -4.022373      -13.670083        2.261128
 H          -3.097498      -11.848920        6.045946
 H          -1.833733      -11.994778        4.927330
 H          -3.361528      -13.943108        4.512441
 H          -4.699429      -12.884652        4.374410
