20
 generated by VMD
 C         -60.941147     -156.231598      -54.786564
 N         -60.201485     -155.561630      -55.450623
 H         -59.845642     -156.983276      -51.696735
 H         -61.553246     -156.980743      -54.342617
 C         -58.740929     -156.818253      -51.844814
 C         -58.025154     -155.465759      -51.706825
 C         -57.869289     -158.003525      -52.123795
 C         -56.722664     -155.543991      -50.720844
 C         -56.729561     -158.067123      -51.061569
 C         -55.884674     -156.792526      -51.021576
 H         -58.647263     -154.670303      -51.469017
 H         -57.712009     -155.287247      -52.741734
 H         -58.487072     -158.935699      -52.057102
 H         -57.524734     -157.847519      -53.214485
 H         -56.985218     -155.452515      -49.642952
 H         -56.350319     -154.537506      -50.845909
 H         -56.238182     -158.954391      -51.331360
 H         -56.976875     -158.271271      -49.982910
 H         -55.082394     -156.867203      -50.290573
 H         -55.427860     -156.743408      -52.047703
