20
 generated by VMD
 C         -68.000160     -178.856934      -58.186367
 N         -66.973579     -178.392944      -57.878357
 H         -65.637733     -176.519836      -58.827591
 H         -68.948952     -179.346130      -58.498447
 C         -65.243202     -175.773834      -59.487522
 C         -66.043953     -174.686554      -60.146717
 C         -63.756035     -175.913193      -59.791225
 C         -65.392967     -173.324036      -60.102783
 C         -63.168274     -174.396393      -59.661163
 C         -63.943699     -173.501724      -60.587559
 H         -67.014946     -174.526352      -59.578342
 H         -66.317093     -174.998901      -61.212482
 H         -63.072987     -176.600403      -59.248985
 H         -63.594288     -176.219284      -60.889271
 H         -65.467308     -172.965683      -59.095371
 H         -65.949036     -172.717987      -60.865971
 H         -62.132446     -174.592606      -59.884315
 H         -63.277294     -173.963333      -58.678444
 H         -63.525208     -172.449936      -60.628910
 H         -63.992149     -173.958847      -61.607559
