20
 generated by VMD
 C         -74.225449     -200.242538      -66.355171
 N         -73.310066     -200.925034      -66.357765
 H         -76.485779     -198.113586      -68.817223
 H         -75.282501     -199.902496      -66.561287
 C         -75.413506     -198.116241      -68.560692
 C         -74.838165     -197.314774      -67.545372
 C         -74.513077     -199.000580      -69.389694
 C         -73.648628     -196.488617      -68.243050
 C         -73.195404     -198.346771      -69.784874
 C         -72.535500     -197.425262      -68.751358
 H         -74.362885     -197.848419      -66.802788
 H         -75.560287     -196.582291      -67.079704
 H         -74.313530     -199.926010      -68.776291
 H         -74.982353     -199.339828      -70.416374
 H         -73.176819     -195.713959      -67.610657
 H         -74.160347     -196.004105      -69.155670
 H         -73.450455     -197.827011      -70.729454
 H         -72.456993     -199.118500      -70.116699
 H         -72.161369     -198.042801      -67.961746
 H         -71.669800     -196.870804      -69.166138
