20
 generated by VMD
 C         -79.460663     -205.450958      -70.915726
 N         -80.286575     -206.065613      -71.381348
 H         -77.386368     -203.023514      -69.906013
 H         -78.613464     -204.744736      -70.741577
 C         -76.353729     -203.302551      -70.214973
 C         -75.316727     -202.271179      -70.393456
 C         -75.767426     -204.614807      -70.035736
 C         -73.818970     -202.634750      -70.440514
 C         -74.598412     -204.581924      -69.122383
 C         -73.384621     -203.950714      -69.714371
 H         -75.311806     -201.490768      -69.644691
 H         -75.556396     -201.760406      -71.363533
 H         -76.496948     -205.375610      -69.745758
 H         -75.489029     -205.065689      -71.000519
 H         -73.307106     -201.799484      -70.001495
 H         -73.559082     -202.579742      -71.476685
 H         -74.329185     -205.547562      -68.801506
 H         -74.926033     -204.122070      -68.129021
 H         -72.625557     -203.783905      -69.048294
 H         -72.980904     -204.656342      -70.426392
