20
 generated by VMD
 C         -20.643597      -57.365604      -16.887297
 N         -20.596785      -56.416595      -16.141697
 H         -22.451967      -59.762222      -17.876101
 H         -20.678497      -58.223534      -17.410902
 C         -22.063440      -60.154064      -16.866745
 C         -22.721716      -59.663269      -15.595807
 C         -21.630362      -61.626663      -16.823845
 C         -22.045288      -60.012825      -14.293361
 C         -20.904490      -61.908401      -15.509706
 C         -21.743404      -61.498051      -14.338755
 H         -23.750967      -59.951122      -15.560943
 H         -22.818914      -58.553490      -15.583147
 H         -22.570808      -62.162426      -16.864798
 H         -21.020021      -61.911011      -17.729774
 H         -22.731777      -59.829826      -13.443788
 H         -21.184181      -59.341743      -14.168817
 H         -19.869400      -61.394958      -15.468581
 H         -20.605843      -63.004795      -15.534294
 H         -22.736750      -61.897446      -14.498749
 H         -21.293514      -61.870522      -13.380327
