20
 generated by VMD
 C         -59.380421     -168.589737      -55.726807
 N         -58.966084     -168.788345      -54.707207
 H         -62.688259     -169.597702      -55.984035
 H         -59.773010     -168.280792      -56.675224
 C         -62.837784     -168.644119      -56.400139
 C         -62.756123     -168.527756      -57.926533
 C         -63.020435     -167.510361      -55.523941
 C         -63.845715     -167.670990      -58.389339
 C         -64.075439     -166.597122      -56.076443
 C         -63.816196     -166.290405      -57.625809
 H         -62.781075     -169.469345      -58.272095
 H         -61.673252     -168.103668      -58.213623
 H         -63.263988     -167.929703      -54.481884
 H         -62.055859     -166.951889      -55.459110
 H         -64.752014     -168.274353      -58.413998
 H         -63.748569     -167.519501      -59.483196
 H         -64.273773     -165.660172      -55.403156
 H         -65.113907     -167.031540      -56.062222
 H         -64.576447     -165.672821      -58.040226
 H         -62.945461     -165.678238      -57.687649
