20
 generated by VMD
 C         -42.864372     -120.698555      -35.250835
 N         -42.593082     -121.055473      -34.217125
 H         -44.094299     -121.153229      -38.426186
 H         -42.887856     -120.513016      -36.364983
 C         -44.029686     -120.094681      -38.522491
 C         -43.089134     -119.390816      -39.505116
 C         -45.162399     -119.125015      -38.096256
 C         -43.865807     -118.945526      -40.773575
 C         -45.936569     -118.709839      -39.405365
 C         -45.098919     -118.039757      -40.403847
 H         -42.373554     -120.186981      -39.732780
 H         -42.387871     -118.538864      -39.010284
 H         -45.857685     -119.578552      -37.407108
 H         -44.784393     -118.092728      -37.724182
 H         -44.212421     -119.717972      -41.505436
 H         -43.252468     -118.265297      -41.340038
 H         -46.778427     -118.141151      -39.127277
 H         -46.470222     -119.589012      -39.914879
 H         -45.662838     -117.665283      -41.236282
 H         -44.822441     -117.038841      -39.983032
