20
 generated by VMD
 C          -1.918933      -14.019213        2.218424
 N          -1.708907      -14.985722        1.709959
 H          -3.804633      -16.728264        0.713033
 H          -4.445892      -17.140615       -0.869129
 C          -4.708918      -16.922447        0.161623
 C          -5.615583      -15.631470        0.295041
 C          -5.429073      -18.072542        0.897470
 C          -6.919741      -15.942917       -0.459577
 C          -6.732746      -18.390770        0.198969
 C          -7.618334      -17.194237        0.066737
 H          -5.116455      -14.721513       -0.134658
 H          -5.833906      -15.480204        1.335794
 H          -4.809345      -18.890160        0.749793
 H          -5.580951      -17.804888        1.875827
 H          -6.731889      -15.975554       -1.582510
 H          -7.636108      -15.094306       -0.263953
 H          -7.227308      -19.217470        0.782378
 H          -6.424648      -18.843321       -0.778788
 H          -8.476560      -17.397570       -0.551277
 H          -8.046831      -16.876417        1.017846
