20
 generated by VMD
 C         -20.038422      -60.618370      -16.990665
 N         -19.228943      -60.040432      -17.575289
 H         -23.748913      -60.512779      -16.909407
 H         -20.722521      -61.276848      -16.507263
 C         -23.328760      -61.458035      -16.693190
 C         -23.311686      -62.396061      -17.848186
 C         -23.320501      -62.036564      -15.266317
 C         -23.416437      -63.906639      -17.720867
 C         -23.064596      -63.573166      -15.309940
 C         -23.961388      -64.203224      -16.364376
 H         -22.341354      -62.279099      -18.268330
 H         -23.949238      -62.122898      -18.592834
 H         -22.603024      -61.521061      -14.673572
 H         -24.205608      -61.840492      -14.746265
 H         -22.471170      -64.344490      -18.092428
 H         -24.164076      -64.263130      -18.517715
 H         -23.143303      -64.162666      -14.370244
 H         -21.988050      -63.725864      -15.520260
 H         -24.111250      -65.259956      -16.135099
 H         -24.962944      -63.817879      -16.367184
