20
 generated by VMD
 C         -60.941238     -156.206573      -54.833183
 N         -60.228134     -155.591721      -55.433884
 H         -59.761463     -156.986053      -51.776985
 H         -61.550045     -156.947128      -54.304573
 C         -58.729706     -156.799850      -51.818562
 C         -58.014038     -155.441681      -51.713524
 C         -57.849171     -157.954376      -52.067196
 C         -56.715729     -155.553940      -50.694859
 C         -56.725243     -158.073975      -51.103600
 C         -55.890282     -156.777191      -51.038609
 H         -58.725441     -154.581436      -51.296642
 H         -57.807388     -155.213593      -52.779453
 H         -58.471066     -158.864761      -51.974892
 H         -57.478218     -157.803436      -53.035587
 H         -56.947094     -155.631149      -49.640076
 H         -56.209705     -154.587387      -50.905491
 H         -56.068527     -159.010895      -51.396423
 H         -57.020981     -158.188843      -50.067757
 H         -55.160545     -156.910049      -50.227947
 H         -55.413586     -156.653702      -52.029469
