20
 generated by VMD
 C         -41.815277     -101.402390      -32.798367
 N         -41.422356     -101.622307      -33.882015
 H         -38.844814     -103.223839      -32.270096
 H         -42.124710     -101.643875      -31.815132
 C         -37.774017     -103.282799      -32.136459
 C         -36.643555     -103.124199      -33.023178
 C         -37.488220     -103.617340      -30.634432
 C         -35.425327     -102.550926      -32.384106
 C         -36.431553     -102.746872      -30.094082
 C         -35.216908     -103.013390      -30.923445
 H         -37.035778     -102.417839      -33.736172
 H         -36.546432     -104.050819      -33.578812
 H         -38.463154     -103.667679      -30.148521
 H         -37.245491     -104.733688      -30.733494
 H         -35.575817     -101.458710      -32.396164
 H         -34.524303     -102.712494      -33.044861
 H         -36.122238     -103.066605      -28.979738
 H         -36.620354     -101.701355      -30.099817
 H         -34.382343     -102.562691      -30.341858
 H         -34.906879     -104.035202      -30.925570
