20
 generated by VMD
 C         -45.177334     -122.979988      -35.402618
 N         -45.643303     -124.040199      -35.184536
 H         -44.965137     -122.247551      -38.245945
 H         -44.777699     -122.033684      -35.757477
 C         -44.853039     -121.636597      -39.167305
 C         -43.435810     -121.366692      -39.639404
 C         -45.919857     -120.752831      -39.534840
 C         -43.430767     -120.785332      -41.017693
 C         -45.749107     -120.120506      -40.959038
 C         -44.333221     -119.563835      -41.069885
 H         -42.782921     -122.238564      -39.634007
 H         -42.961594     -120.795425      -38.752136
 H         -46.761677     -121.421288      -39.494003
 H         -46.116802     -119.981163      -38.875740
 H         -43.707802     -121.592621      -41.849827
 H         -42.420185     -120.574196      -41.387165
 H         -46.595558     -119.298882      -41.059322
 H         -46.074692     -120.898552      -41.724648
 H         -44.298069     -119.127609      -42.053017
 H         -44.177742     -118.869537      -40.260693
