20
 generated by VMD
 C         -38.413994     -113.774918      -35.565025
 N         -38.176235     -114.908913      -35.520756
 H         -41.593418     -115.392258      -36.370117
 H         -38.756603     -112.794479      -35.341270
 C         -42.392895     -114.656036      -36.505604
 C         -42.652477     -114.616699      -37.935604
 C         -43.407429     -114.564728      -35.480831
 C         -43.745705     -115.671989      -38.186913
 C         -44.679485     -115.351799      -35.875721
 C         -45.015923     -115.322327      -37.411247
 H         -41.709160     -114.786758      -38.524323
 H         -43.060062     -113.613480      -38.138428
 H         -43.000950     -114.896126      -34.531704
 H         -43.648739     -113.506599      -35.412624
 H         -43.324455     -116.602242      -38.022209
 H         -43.931629     -115.676010      -39.267849
 H         -45.644085     -114.990265      -35.395206
 H         -44.512482     -116.429405      -35.583099
 H         -45.674717     -116.145546      -37.559116
 H         -45.388512     -114.366333      -37.615608
