20
 generated by VMD
 C          -2.150641       -9.762778       -0.093590
 N          -2.296622       -8.771854        0.404144
 H          -2.184691      -10.960999        2.662156
 H          -2.552902      -12.085683        4.168117
 C          -2.772041      -11.850893        3.047809
 C          -2.545255      -13.166709        2.275063
 C          -4.254415      -11.425635        3.054696
 C          -3.480704      -14.286822        2.780069
 C          -5.103706      -12.572354        3.619202
 C          -4.954522      -13.902429        2.782094
 H          -1.515000      -13.469218        2.459181
 H          -2.733848      -12.978337        1.213438
 H          -4.290676      -10.574726        3.709717
 H          -4.505123      -10.997431        2.125498
 H          -3.157520      -14.572593        3.778562
 H          -3.317425      -15.085438        2.032841
 H          -6.154136      -12.300846        3.673059
 H          -4.778884      -12.863617        4.618992
 H          -5.510512      -14.730829        3.274457
 H          -5.294438      -13.805646        1.710551
