20
 generated by VMD
 C         -71.551842     -199.065842      -64.628723
 N         -70.577080     -198.752701      -65.200378
 H         -72.337959     -196.698776      -66.417236
 H         -72.563988     -199.223923      -64.345009
 C         -72.815765     -195.989777      -67.072670
 C         -73.108276     -194.489563      -66.660652
 C         -73.352951     -196.452637      -68.411263
 C         -73.424866     -193.686508      -67.965706
 C         -74.602669     -195.818405      -68.891571
 C         -74.642822     -194.252106      -68.782082
 H         -72.195190     -194.052551      -66.337708
 H         -74.041466     -194.585342      -66.013412
 H         -72.565117     -196.275299      -69.160324
 H         -73.518013     -197.524857      -68.385345
 H         -72.547165     -193.820618      -68.638016
 H         -73.566757     -192.666214      -67.651299
 H         -75.343758     -196.296082      -68.278885
 H         -74.831520     -195.920090      -69.951698
 H         -74.614059     -193.718048      -69.736252
 H         -75.592628     -193.926086      -68.179993
