20
 generated by VMD
 C         -50.660957     -129.207611      -42.969769
 N         -50.281227     -128.310699      -42.355400
 H         -48.546391     -128.117279      -40.445755
 H         -51.244484     -130.034683      -43.330147
 C         -47.538082     -127.718895      -40.593037
 C         -46.391396     -128.419586      -40.023663
 C         -47.164902     -126.432060      -41.042534
 C         -45.199165     -128.481445      -41.027908
 C         -46.006332     -126.334145      -41.999653
 C         -44.749096     -127.066422      -41.479073
 H         -46.606728     -129.488663      -39.887360
 H         -46.082642     -127.985863      -39.110733
 H         -48.066189     -125.915276      -41.514874
 H         -47.163464     -125.884979      -40.126495
 H         -45.430569     -129.017502      -41.924503
 H         -44.367958     -129.062286      -40.663502
 H         -45.635696     -125.365166      -42.244850
 H         -46.214321     -126.966499      -42.868431
 H         -43.997734     -127.200401      -42.290985
 H         -44.263142     -126.634331      -40.615467
