20
 generated by VMD
 C         -47.747456     -136.546249      -45.943066
 N         -46.922188     -136.057526      -46.508339
 H         -51.291733     -135.260498      -45.797859
 H         -48.668762     -137.015625      -45.662651
 C         -51.612648     -136.243378      -45.329163
 C         -52.190464     -137.410233      -46.099339
 C         -51.841656     -136.192001      -43.888672
 C         -51.959244     -138.811401      -45.394791
 C         -51.570240     -137.656540      -43.176094
 C         -52.328827     -138.707397      -43.876354
 H         -51.711365     -137.561356      -47.096645
 H         -53.290840     -137.226700      -46.180092
 H         -51.078064     -135.540161      -43.388351
 H         -52.836060     -135.886765      -43.659374
 H         -50.886974     -139.043839      -45.481075
 H         -52.385101     -139.594910      -46.126045
 H         -51.972309     -137.622360      -42.098877
 H         -50.473095     -137.763580      -43.035191
 H         -52.000957     -139.666458      -43.468666
 H         -53.422054     -138.452667      -43.726978
