20
 generated by VMD
 C         -60.826416     -156.030670      -54.357906
 N         -60.810093     -156.212341      -55.488808
 H         -59.276474     -156.091888      -50.979294
 H         -60.885494     -155.680984      -53.310631
 C         -58.329338     -155.761749      -51.372482
 C         -57.565533     -154.748962      -50.661278
 C         -57.624233     -156.550323      -52.383503
 C         -56.246517     -155.312500      -49.997940
 C         -56.487103     -157.133972      -51.698177
 C         -55.535252     -156.180527      -51.045502
 H         -58.238930     -154.296555      -49.943188
 H         -57.226879     -153.845901      -51.328636
 H         -58.344284     -157.188629      -52.747334
 H         -57.274326     -155.876602      -53.188007
 H         -56.636711     -155.893768      -49.109093
 H         -55.485909     -154.649048      -49.742504
 H         -55.870697     -157.648163      -52.406338
 H         -56.942245     -157.948715      -50.997105
 H         -54.754421     -156.837021      -50.645035
 H         -54.996593     -155.490143      -51.764278
