20
 generated by VMD
 C         -79.435135     -209.064285      -76.228348
 N         -79.158409     -209.771225      -77.135773
 H         -77.813507     -209.046936      -72.734375
 H         -79.680023     -208.420227      -75.376884
 C         -77.851852     -210.097824      -72.453461
 C         -76.939285     -210.576950      -71.381294
 C         -79.098427     -210.910248      -72.798286
 C         -77.702995     -211.164383      -70.181320
 C         -79.786156     -211.733810      -71.688393
 C         -78.690964     -212.368042      -70.639389
 H         -76.276627     -209.794693      -71.024284
 H         -76.264435     -211.282257      -71.775703
 H         -79.879875     -210.339844      -73.221855
 H         -78.737724     -211.636169      -73.565437
 H         -78.382614     -210.348785      -69.858185
 H         -76.909668     -211.386597      -69.457977
 H         -80.359047     -212.500229      -72.151138
 H         -80.504723     -211.124054      -71.067032
 H         -79.277946     -212.638596      -69.728966
 H         -78.179955     -213.337891      -70.845245
