20
 generated by VMD
 C         -63.163315     -173.227463      -55.672123
 N         -63.040634     -173.966507      -54.810673
 H         -61.756168     -171.800842      -58.059795
 H         -63.154617     -172.511749      -56.474308
 C         -62.562195     -171.165070      -58.360996
 C         -62.510963     -169.659973      -57.959602
 C         -63.753502     -171.622849      -59.109440
 C         -63.729092     -168.797577      -58.413780
 C         -64.814064     -170.662628      -59.441895
 C         -65.051735     -169.596268      -58.373188
 H         -61.578102     -169.121307      -58.432957
 H         -62.401630     -169.650391      -56.897778
 H         -63.380108     -171.938126      -60.122593
 H         -64.359650     -172.487198      -58.535465
 H         -63.552040     -168.439545      -59.456020
 H         -63.861305     -167.908844      -57.833076
 H         -65.840172     -171.129318      -59.474209
 H         -64.606934     -170.239258      -60.494972
 H         -65.853584     -168.969727      -58.573479
 H         -65.208733     -170.139877      -57.399487
