20
 generated by VMD
 C         -13.479504      -30.709215       -8.324249
 N         -13.339981      -30.053648       -9.232725
 H         -11.019104      -31.675180       -5.943194
 H         -11.334411      -31.840784       -4.167436
 C         -11.045983      -32.391346       -5.126696
 C          -9.611360      -32.894012       -4.917304
 C         -12.119879      -33.525665       -5.339294
 C          -9.496850      -34.078728       -3.955957
 C         -11.918720      -34.675987       -4.327341
 C         -10.461039      -35.180626       -4.300070
 H          -8.961511      -32.094719       -4.473463
 H          -9.207183      -33.282925       -5.853259
 H         -13.118660      -33.080288       -5.252151
 H         -11.932953      -33.881950       -6.363810
 H          -9.743822      -33.671478       -2.951784
 H          -8.498407      -34.548878       -4.016153
 H         -12.486220      -35.511017       -4.590596
 H         -12.176308      -34.256363       -3.315367
 H         -10.349143      -36.016243       -3.633816
 H         -10.248081      -35.607929       -5.321966
