20
 generated by VMD
 C         -12.394190      -31.671202       -8.912619
 N         -12.530309      -30.705139       -8.323861
 H         -10.659854      -34.950703       -7.591004
 H         -11.656860      -33.822945       -6.797161
 C         -11.207329      -34.775131       -6.678825
 C         -10.302836      -34.971619       -5.471845
 C         -12.330288      -35.853905       -6.602615
 C         -11.173809      -34.831928       -4.201763
 C         -13.150840      -35.819836       -5.358237
 C         -12.308933      -35.870213       -4.130478
 H          -9.516381      -34.230808       -5.508440
 H          -9.730113      -35.919106       -5.577822
 H         -12.971712      -35.741074       -7.476137
 H         -11.812377      -36.795658       -6.714439
 H         -11.675218      -33.840702       -4.209616
 H         -10.519203      -34.834637       -3.351939
 H         -13.843262      -36.603680       -5.316877
 H         -13.804280      -34.861610       -5.313169
 H         -12.921562      -35.737564       -3.191340
 H         -11.882446      -36.898403       -4.140226
