20
 generated by VMD
 C         -50.049816     -129.189026      -42.999763
 N         -50.658844     -128.426727      -43.644707
 H         -48.652451     -128.065933      -39.614613
 H         -49.573898     -129.907562      -42.337795
 C         -47.746834     -128.059845      -40.265034
 C         -46.626301     -129.007584      -39.961849
 C         -47.380016     -126.778664      -41.074684
 C         -45.530968     -129.103958      -41.071701
 C         -46.233425     -126.986961      -42.120243
 C         -45.008278     -127.780716      -41.645828
 H         -47.116009     -129.997513      -39.765091
 H         -46.111835     -128.659866      -39.050037
 H         -48.395443     -126.326279      -41.523357
 H         -47.076271     -125.952034      -40.441208
 H         -46.033646     -129.609482      -41.846134
 H         -44.707920     -129.621658      -40.582989
 H         -46.002682     -125.951508      -42.433479
 H         -46.719006     -127.517342      -42.999569
 H         -44.423618     -127.966461      -42.532028
 H         -44.387909     -127.151321      -41.068405
