20
 generated by VMD
 C         -12.524548      -27.709282       -1.505342
 N         -11.776250      -26.975723       -1.879674
 H         -10.424928      -26.076239       -4.386804
 H          -9.018321      -25.865568       -5.551459
 C          -9.306875      -26.155924       -4.516191
 C          -8.989479      -27.605690       -4.485708
 C          -8.615747      -25.292324       -3.470613
 C          -7.598415      -27.972193       -4.105694
 C          -7.143934      -25.646072       -3.199003
 C          -6.986808      -27.142460       -3.023992
 H          -9.176649      -28.116493       -5.399575
 H          -9.732553      -28.123577       -3.822885
 H          -8.837546      -24.250065       -3.659551
 H          -9.151879      -25.436163       -2.490367
 H          -7.020483      -27.823589       -5.045739
 H          -7.592713      -29.068565       -3.907597
 H          -6.758500      -25.111517       -2.294804
 H          -6.506284      -25.412085       -4.096795
 H          -5.924830      -27.343882       -2.991963
 H          -7.472897      -27.392401       -2.076507
