20
 generated by VMD
 C         -79.447113     -205.445694      -70.936531
 N         -80.593903     -205.701981      -71.161911
 H         -77.317963     -203.134598      -69.667564
 H         -78.411766     -205.237106      -70.564110
 C         -76.240593     -203.218567      -69.947258
 C         -75.349190     -201.995132      -70.218781
 C         -75.477295     -204.424545      -69.636650
 C         -73.783630     -202.182785      -70.416801
 C         -74.057213     -204.109970      -68.973663
 C         -73.157944     -203.472046      -70.068680
 H         -75.438484     -201.310104      -69.356766
 H         -75.828606     -201.543839      -71.113335
 H         -76.000984     -205.099854      -68.946678
 H         -75.529320     -205.102707      -70.500221
 H         -73.222549     -201.300568      -70.045410
 H         -73.631325     -202.058319      -71.511261
 H         -73.673973     -205.081268      -68.480743
 H         -74.191254     -203.439270      -68.175285
 H         -72.178070     -203.387665      -69.713448
 H         -73.111755     -204.092163      -70.956337
