20
 generated by VMD
 C         -22.333427      -67.562134      -16.125662
 N         -21.201782      -67.321083      -16.107983
 H         -24.148985      -65.312126      -18.308628
 H         -23.478767      -67.715363      -16.189505
 C         -24.476955      -66.306412      -18.667807
 C         -23.849419      -66.780991      -19.887697
 C         -25.990406      -66.395607      -18.378263
 C         -24.449045      -68.103622      -20.424948
 C         -26.430878      -67.839195      -18.787792
 C         -25.961246      -68.082993      -20.233038
 H         -22.756298      -67.108353      -19.583899
 H         -23.911547      -66.163979      -20.761551
 H         -26.155893      -66.333069      -17.319706
 H         -26.438427      -65.564423      -18.990782
 H         -23.963030      -68.911728      -19.916515
 H         -24.266987      -68.237366      -21.515429
 H         -27.520584      -67.759102      -18.838575
 H         -26.262049      -68.695816      -18.039650
 H         -26.479933      -68.978432      -20.561289
 H         -26.511160      -67.370232      -20.904995
