20
 generated by VMD
 C         -11.499036      -41.717354       -6.975392
 N         -11.760420      -42.383095       -6.100091
 H         -14.813620      -42.981052       -8.059060
 H         -14.876099      -41.742821       -9.305366
 C         -15.301998      -42.761528       -9.129272
 C         -16.819193      -42.741638       -8.948275
 C         -14.811796      -43.646801      -10.251587
 C         -17.549944      -42.439987      -10.309894
 C         -15.607886      -43.378174      -11.578196
 C         -17.123974      -43.515198      -11.294847
 H         -17.093924      -41.912319       -8.281744
 H         -17.145172      -43.746887       -8.527247
 H         -13.759091      -43.461563      -10.438539
 H         -14.952340      -44.745117      -10.030993
 H         -17.249645      -41.436275      -10.601957
 H         -18.619976      -42.415939      -10.155282
 H         -15.229503      -44.064217      -12.379529
 H         -15.392292      -42.407936      -12.010139
 H         -17.752148      -43.423809      -12.184326
 H         -17.292706      -44.554428      -10.967360
