20
 generated by VMD
 C         -29.406918      -90.053810      -25.188765
 N         -29.091618      -91.142342      -25.425472
 H         -32.311188      -91.213608      -26.964970
 H         -29.820286      -89.090233      -24.855543
 C         -33.101521      -90.779747      -27.530655
 C         -34.397427      -91.530136      -27.527304
 C         -32.942478      -89.705429      -28.455029
 C         -35.525227      -90.527740      -27.315647
 C         -33.971645      -88.648895      -28.370010
 C         -35.416111      -89.136673      -28.023752
 H         -34.417908      -92.236305      -26.664047
 H         -34.480480      -92.100975      -28.433805
 H         -31.923832      -89.376396      -28.260939
 H         -32.807785      -90.102364      -29.446276
 H         -35.603085      -90.330658      -26.180834
 H         -36.611347      -90.820786      -27.709890
 H         -33.818523      -88.010712      -29.296965
 H         -33.677158      -88.072144      -27.476372
 H         -36.113598      -88.380844      -27.606495
 H         -35.754345      -89.319435      -29.044462
