20
 generated by VMD
 C         -59.900211     -152.140533      -50.179550
 N         -58.891045     -152.647568      -50.118004
 H         -56.810516     -150.941162      -48.840023
 H         -60.778313     -151.572739      -50.292572
 C         -55.740452     -150.767136      -49.019001
 C         -54.809834     -151.757523      -49.646786
 C         -55.338211     -149.254166      -49.238144
 C         -54.419163     -151.352142      -51.121632
 C         -54.826748     -148.780991      -50.646675
 C         -53.784664     -149.868790      -51.068420
 H         -55.254292     -152.785980      -49.526066
 H         -53.898056     -151.837067      -49.091682
 H         -56.070080     -148.655518      -48.759571
 H         -54.372684     -149.145065      -48.688606
 H         -55.191170     -151.249512      -51.879047
 H         -53.723694     -152.096268      -51.566765
 H         -54.412388     -147.859467      -50.510609
 H         -55.735996     -148.712189      -51.385223
 H         -53.463272     -149.574570      -52.053185
 H         -52.883839     -149.825150      -50.274380
