20
 generated by VMD
 C         -11.050335      -40.612347       -7.324080
 N         -11.584028      -40.363621       -6.374406
 H         -13.759502      -40.806416       -8.629762
 H         -15.136839      -40.050079       -9.414556
 C         -14.713051      -40.981903       -9.086858
 C         -15.587064      -41.685589       -8.064364
 C         -14.498860      -41.713013      -10.393500
 C         -16.880255      -42.057911       -8.788469
 C         -15.740175      -42.360882      -10.970613
 C         -16.688374      -42.986713       -9.963251
 H         -15.837609      -40.985233       -7.180966
 H         -15.024397      -42.593655       -7.718982
 H         -13.949719      -41.014027      -11.116039
 H         -13.844354      -42.561241      -10.234569
 H         -17.364647      -41.155308       -9.153853
 H         -17.516457      -42.529869       -8.050776
 H         -15.453580      -43.033432      -11.709760
 H         -16.280455      -41.530022      -11.547721
 H         -17.659006      -43.271816      -10.397977
 H         -16.344109      -43.943699       -9.622159
