20
 generated by VMD
 C         -60.129368     -157.352005      -56.273937
 N         -59.542103     -158.284225      -56.571945
 H         -60.251923     -157.410080      -52.909290
 H         -60.689461     -156.524887      -55.942337
 C         -59.423832     -158.113266      -52.927280
 C         -58.058903     -157.893921      -52.318104
 C         -59.810581     -159.686890      -53.177383
 C         -57.772808     -158.813614      -51.059723
 C         -59.365612     -160.620361      -51.998619
 C         -57.976833     -160.320175      -51.503963
 H         -57.759212     -156.815155      -52.122406
 H         -57.275585     -158.059113      -52.992939
 H         -60.910030     -159.728027      -53.406609
 H         -59.206482     -160.067123      -54.014446
 H         -58.384251     -158.474426      -50.261662
 H         -56.689789     -158.862518      -50.768093
 H         -59.427803     -161.680145      -52.332073
 H         -60.077614     -160.457657      -51.226997
 H         -57.731823     -160.964630      -50.770237
 H         -57.162933     -160.537216      -52.261417
