20
 generated by VMD
 C         -20.320557      -52.239014       -9.764545
 N         -21.103088      -51.590229      -10.309266
 H         -18.346565      -49.306553      -10.715533
 H         -19.573854      -52.859043       -9.476960
 C         -17.751328      -49.466431      -11.655433
 C         -16.884535      -50.730797      -11.866136
 C         -17.297430      -48.167969      -12.234684
 C         -16.922495      -50.992878      -13.355561
 C         -16.835367      -48.396648      -13.665217
 C         -16.223600      -49.760098      -13.977750
 H         -17.360298      -51.563374      -11.431032
 H         -15.838635      -50.621449      -11.502339
 H         -18.195980      -47.521439      -12.243330
 H         -16.578756      -47.683769      -11.601889
 H         -17.961018      -51.073727      -13.801922
 H         -16.416063      -51.950951      -13.588795
 H         -16.083687      -47.597652      -14.078779
 H         -17.703625      -48.219666      -14.313187
 H         -16.247538      -49.827850      -15.095681
 H         -15.142400      -49.713837      -13.681726
