20
 generated by VMD
 C         -68.731705     -194.975967      -65.522476
 N         -68.719650     -194.798035      -64.377892
 H         -71.247871     -194.371750      -67.682983
 H         -68.829689     -194.999420      -66.557938
 C         -72.005714     -193.776932      -67.231712
 C         -71.729988     -192.541718      -66.537193
 C         -73.385902     -194.304901      -67.450188
 C         -72.886993     -192.114426      -65.615997
 C         -74.625458     -193.491455      -66.957542
 C         -74.236588     -192.170715      -66.384636
 H         -71.736855     -191.788544      -67.388947
 H         -70.882065     -192.672379      -65.948288
 H         -73.619461     -194.395935      -68.516953
 H         -73.306946     -195.178207      -66.819595
 H         -72.854378     -191.100357      -65.310310
 H         -72.918442     -192.770752      -64.726021
 H         -75.272346     -194.075790      -66.235199
 H         -75.201447     -193.310760      -67.835983
 H         -74.293716     -191.272278      -67.228149
 H         -74.923492     -191.908783      -65.651024
