20
 generated by VMD
 C         -68.477562     -186.115387      -67.769905
 N         -68.346115     -187.245529      -67.532097
 H         -68.316170     -187.853241      -64.507683
 H         -68.574265     -185.106232      -68.033241
 C         -69.117760     -187.675751      -63.744289
 C         -68.879303     -187.145554      -62.286674
 C         -70.527596     -187.592102      -64.285362
 C         -69.865143     -188.029831      -61.418022
 C         -71.586906     -188.060349      -63.240185
 C         -71.341728     -187.714935      -61.828373
 H         -69.114281     -186.100555      -62.184887
 H         -67.901169     -187.454636      -61.992371
 H         -70.666588     -186.490204      -64.505974
 H         -70.736511     -188.190964      -65.178528
 H         -69.913460     -187.752060      -60.331371
 H         -69.573112     -189.069656      -61.431290
 H         -71.486938     -189.099777      -63.396683
 H         -72.524117     -187.604477      -63.475716
 H         -71.512688     -186.618622      -61.703350
 H         -71.833336     -188.378601      -60.997730
