20
 generated by VMD
 C          -1.906360      -17.648483        2.085147
 N          -1.624324      -17.103743        3.017652
 H          -5.478643      -17.389671        1.028594
 H          -4.952278      -18.570824       -0.156439
 C          -5.779609      -17.967089        0.153028
 C          -6.174154      -17.041868       -0.971600
 C          -7.046614      -18.810663        0.608307
 C          -6.931988      -17.655369       -2.201232
 C          -7.731953      -19.439899       -0.658778
 C          -8.142300      -18.389246       -1.649366
 H          -5.252100      -16.619642       -1.397034
 H          -6.804523      -16.171509       -0.619622
 H          -6.567697      -19.633598        1.263782
 H          -7.712178      -18.138317        1.194348
 H          -6.264961      -18.321213       -2.696121
 H          -7.257355      -16.796057       -2.789362
 H          -8.662834      -19.941912       -0.344747
 H          -7.036043      -20.162361       -1.114586
 H          -8.702237      -18.850891       -2.470108
 H          -8.813491      -17.722448       -1.094067
