20
 generated by VMD
 C         -28.462440      -74.028618      -18.756176
 N         -29.450647      -73.631821      -18.243858
 H         -25.117315      -72.430023      -18.755276
 H         -27.652954      -74.365532      -19.454037
 C         -25.516829      -72.399460      -19.805620
 C         -24.910007      -73.469215      -20.616001
 C         -25.857725      -71.069351      -20.373659
 C         -25.478724      -73.527985      -22.131651
 C         -26.221188      -71.017769      -22.009565
 C         -25.493801      -72.203682      -22.835955
 H         -24.859274      -74.462288      -20.213181
 H         -23.853546      -73.216591      -20.722668
 H         -26.730036      -70.565437      -19.885290
 H         -25.014057      -70.439270      -20.205711
 H         -26.433214      -74.035561      -22.128935
 H         -24.816792      -74.189819      -22.701231
 H         -25.920038      -70.080711      -22.301723
 H         -27.265661      -71.201469      -22.057486
 H         -25.809376      -72.364365      -23.949892
 H         -24.418055      -71.862755      -22.878359
