20
 generated by VMD
 C         -39.034420     -112.376991      -35.862137
 N         -38.491776     -111.721893      -36.644314
 H         -40.709389     -114.733131      -34.998352
 H         -39.669113     -112.677986      -35.081982
 C         -41.462830     -114.145691      -35.475788
 C         -41.722195     -114.384644      -36.974888
 C         -42.281761     -113.181427      -34.719254
 C         -43.237808     -114.503334      -37.212681
 C         -43.765675     -113.485153      -34.902622
 C         -44.138374     -113.448120      -36.405018
 H         -41.040363     -115.247322      -37.228279
 H         -41.181667     -113.522385      -37.433453
 H         -42.129150     -113.304138      -33.640888
 H         -41.911591     -112.200684      -35.053402
 H         -43.605251     -115.450180      -36.783104
 H         -43.597881     -114.440605      -38.273216
 H         -44.451279     -112.967888      -34.180023
 H         -43.979649     -114.507652      -34.481930
 H         -45.163246     -113.658272      -36.558811
 H         -43.978916     -112.470421      -36.908554
