20
 generated by VMD
 C         -40.525581     -100.233765      -30.320677
 N         -41.357395     -100.506805      -29.561672
 H         -37.097607     -101.152153      -30.610584
 H         -39.687111      -99.826408      -30.914341
 C         -36.375698     -100.456436      -30.958538
 C         -36.279633     -100.070778      -32.323353
 C         -35.333233     -100.219437      -29.762611
 C         -35.247257      -98.879326      -32.481270
 C         -34.338352      -99.092308      -30.031965
 C         -34.032810      -98.929710      -31.460810
 H         -37.262012      -99.727417      -32.766304
 H         -35.968945     -100.966873      -32.821693
 H         -35.925213     -100.161659      -28.813320
 H         -34.812054     -101.137199      -29.712019
 H         -35.899380      -98.076935      -32.268520
 H         -35.017216      -98.646805      -33.507133
 H         -33.416733      -99.209015      -29.519197
 H         -34.807117      -98.183075      -29.645309
 H         -33.549419      -97.880417      -31.560638
 H         -33.420231      -99.729828      -31.889706
