20
 generated by VMD
 C         -40.228119     -101.067116      -32.143993
 N         -41.085823     -100.765839      -31.408686
 H         -37.669769     -103.720718      -32.377010
 H         -39.499664     -101.283676      -32.848072
 C         -37.394825     -102.803940      -31.917803
 C         -36.039059     -102.407303      -32.849480
 C         -37.398052     -102.410149      -30.528355
 C         -35.245754     -101.141441      -32.469551
 C         -36.475273     -101.095139      -30.226162
 C         -35.121113     -101.021469      -30.930796
 H         -36.297924     -102.554169      -33.951881
 H         -35.338188     -103.264236      -32.682747
 H         -38.296349     -102.239166      -30.014507
 H         -36.888149     -103.289383      -29.998207
 H         -35.748154     -100.286926      -32.931900
 H         -34.281239     -101.246826      -33.039635
 H         -36.352448     -101.023247      -29.103521
 H         -37.034721     -100.261024      -30.439939
 H         -34.688133     -100.045387      -30.690443
 H         -34.462173     -101.815063      -30.478642
