20
 generated by VMD
 C         -59.992702     -152.588150      -50.966011
 N         -60.937233     -152.789749      -51.695774
 H         -56.950798     -152.816498      -49.570045
 H         -59.059830     -152.450302      -50.470612
 C         -56.016296     -152.280457      -49.590588
 C         -54.644920     -152.852585      -49.487404
 C         -56.142704     -150.810516      -49.731133
 C         -53.833454     -152.377090      -50.706997
 C         -55.489735     -150.498169      -51.125267
 C         -53.921246     -150.828506      -50.997410
 H         -54.849361     -153.957932      -49.673203
 H         -54.105988     -152.654297      -48.593391
 H         -57.216660     -150.490295      -49.847683
 H         -55.768402     -150.079208      -48.973667
 H         -54.328156     -152.743881      -51.615089
 H         -52.744732     -152.740295      -50.630219
 H         -55.630123     -149.468338      -51.419361
 H         -55.998989     -151.074020      -52.031048
 H         -53.333065     -150.614990      -51.880482
 H         -53.537815     -150.304382      -50.047157
