20
 generated by VMD
 C         -70.320694     -182.827591      -64.703285
 N         -70.434464     -183.636993      -65.480125
 H         -67.674438     -180.807999      -62.977921
 H         -70.133957     -182.041382      -63.968044
 C         -67.692291     -180.955246      -61.905151
 C         -67.682144     -182.236206      -61.250938
 C         -67.030014     -179.935074      -61.115822
 C         -66.498886     -182.736649      -60.435959
 C         -65.738396     -180.349960      -60.505882
 C         -65.961151     -181.555573      -59.565178
 H         -68.048035     -182.996429      -61.986168
 H         -68.535484     -182.263367      -60.482075
 H         -66.773506     -179.010254      -61.827686
 H         -67.619698     -179.499100      -60.325253
 H         -65.863525     -183.182938      -61.266586
 H         -66.835770     -183.528702      -59.791672
 H         -65.401169     -179.478134      -59.928898
 H         -64.922310     -180.541412      -61.187054
 H         -64.945847     -181.872192      -59.140064
 H         -66.666809     -181.408401      -58.806274
