20
 generated by VMD
 C         -52.326851     -146.365463      -44.161869
 N         -51.707722     -146.500992      -45.092724
 H         -53.644985     -145.738876      -47.095432
 H         -52.906158     -146.154770      -43.262066
 C         -53.967159     -144.992874      -47.836315
 C         -52.874977     -144.885147      -48.840294
 C         -54.815269     -143.841644      -47.537388
 C         -53.452213     -144.263580      -50.148941
 C         -55.318882     -143.318985      -48.836098
 C         -54.232967     -143.039307      -49.853851
 H         -52.516579     -145.927399      -48.917717
 H         -51.966900     -144.296494      -48.347424
 H         -55.620655     -144.172043      -46.932861
 H         -54.388554     -143.133606      -46.954529
 H         -54.091305     -144.959412      -50.689869
 H         -52.715569     -144.159256      -50.953091
 H         -55.763046     -142.361465      -48.487144
 H         -56.155220     -143.829346      -49.294353
 H         -54.853218     -142.556976      -50.705532
 H         -53.580833     -142.266891      -49.414253
