20
 generated by VMD
 C         -79.924217     -205.404633      -71.809578
 N         -79.734619     -206.565094      -71.700714
 H         -77.351952     -203.551956      -71.008667
 H         -80.022018     -204.366669      -71.927925
 C         -76.467186     -204.160629      -70.969856
 C         -75.144951     -203.500015      -71.189529
 C         -76.386444     -205.569275      -70.451813
 C         -74.384796     -203.538147      -69.936630
 C         -75.315369     -205.739380      -69.351639
 C         -74.026695     -204.906677      -69.313744
 H         -75.357689     -202.467758      -71.580589
 H         -74.640274     -203.995621      -71.963081
 H         -77.435219     -206.061432      -70.287254
 H         -76.034286     -206.041122      -71.402626
 H         -74.919296     -202.997467      -69.142944
 H         -73.471794     -203.062454      -70.252907
 H         -75.150238     -206.881241      -69.401291
 H         -75.736099     -205.517593      -68.401245
 H         -73.555267     -204.787079      -68.305389
 H         -73.323486     -205.283401      -69.986534
