20
 generated by VMD
 C         -40.229481     -104.851059      -36.756771
 N         -39.499310     -104.019470      -37.122086
 H         -40.510822     -108.155449      -34.941582
 H         -40.789757     -105.750046      -36.474079
 C         -39.705643     -108.636940      -34.344326
 C         -38.594257     -107.791481      -33.680237
 C         -40.200954     -109.924400      -33.487972
 C         -38.880459     -107.526337      -32.256298
 C         -40.512043     -109.513657      -32.033203
 C         -39.330345     -108.789734      -31.387928
 H         -38.700199     -106.839813      -34.088470
 H         -37.579975     -108.081337      -33.863808
 H         -41.220184     -110.261581      -33.809757
 H         -39.496868     -110.818268      -33.676521
 H         -39.663727     -106.706245      -32.106937
 H         -37.970299     -107.061981      -31.765278
 H         -40.666672     -110.438171      -31.459797
 H         -41.266430     -108.778343      -31.990383
 H         -39.676857     -108.370148      -30.374311
 H         -38.426491     -109.510475      -31.236071
