20
 generated by VMD
 C         -47.658031     -125.477135      -39.060078
 N         -47.991146     -126.472298      -38.527302
 H         -45.072571     -122.828735      -37.812222
 H         -47.392216     -124.689629      -39.701309
 C         -45.337925     -123.029274      -38.907200
 C         -44.515999     -124.261635      -39.403446
 C         -45.715252     -121.939766      -39.839916
 C         -44.740547     -124.517593      -40.849339
 C         -45.692020     -122.242378      -41.296745
 C         -44.577690     -123.207123      -41.722500
 H         -44.812225     -125.123169      -38.871101
 H         -43.425442     -124.139778      -39.192982
 H         -46.743141     -121.605347      -39.466106
 H         -44.958874     -121.182060      -39.659630
 H         -45.712715     -125.069641      -41.090229
 H         -43.790516     -125.054947      -41.168610
 H         -45.690178     -121.227867      -41.948753
 H         -46.698235     -122.823334      -41.449810
 H         -44.594379     -123.374504      -42.779320
 H         -43.634743     -122.792343      -41.431335
