20
 generated by VMD
 C         -40.901672     -102.717041      -34.884510
 N         -41.503376     -102.726692      -35.890289
 H         -39.824821     -104.068527      -32.623203
 H         -40.379353     -102.654991      -33.981174
 C         -38.907646     -104.768059      -32.373905
 C         -37.503166     -104.198357      -32.945831
 C         -38.716026     -106.063255      -31.656572
 C         -36.363186     -104.167015      -31.910488
 C         -37.636803     -105.964432      -30.664808
 C         -36.268837     -105.488335      -31.192287
 H         -37.667553     -103.267609      -33.476482
 H         -37.131172     -104.869240      -33.733093
 H         -39.608086     -106.354080      -31.238062
 H         -38.434658     -106.918846      -32.353733
 H         -36.641689     -103.461472      -31.144833
 H         -35.425629     -103.715927      -32.196316
 H         -37.526466     -106.948570      -30.192343
 H         -37.742088     -105.192123      -29.869535
 H         -35.647236     -105.314369      -30.281301
 H         -35.810074     -106.177528      -31.837729
