20
 generated by VMD
 C         -27.828896      -84.597443      -26.083757
 N         -28.375820      -84.769218      -27.102312
 H         -30.771572      -84.779991      -26.142988
 H         -27.464111      -84.330254      -25.160479
 C         -31.523399      -85.546654      -25.890791
 C         -31.870893      -85.780151      -24.374193
 C         -31.992908      -86.604408      -26.823370
 C         -33.203129      -86.547867      -24.056597
 C         -33.346413      -87.222885      -26.438969
 C         -33.443905      -87.622971      -24.992851
 H         -31.951475      -84.747803      -23.865789
 H         -31.075417      -86.315475      -23.910660
 H         -32.121883      -86.111305      -27.799202
 H         -31.118847      -87.345299      -26.912655
 H         -33.942833      -85.824081      -24.215273
 H         -33.160332      -87.006027      -23.044935
 H         -33.693581      -88.138702      -26.909760
 H         -34.088566      -86.491707      -26.586800
 H         -34.425377      -88.046806      -24.833374
 H         -32.774567      -88.441681      -24.912432
