20
 generated by VMD
 C         -38.192905     -110.253532      -36.175106
 N         -37.670845     -109.234085      -36.241573
 H         -40.247425     -113.633064      -35.684784
 H         -38.785892     -111.074860      -35.936501
 C         -41.185535     -113.174965      -35.918957
 C         -42.316135     -113.841064      -36.717346
 C         -41.491402     -111.924347      -35.144566
 C         -43.439518     -114.158165      -35.704121
 C         -42.562214     -112.413292      -34.042305
 C         -43.790836     -112.956825      -34.888039
 H         -41.870995     -114.816864      -36.978687
 H         -42.580994     -113.239868      -37.638306
 H         -40.546070     -111.668922      -34.627556
 H         -41.851543     -111.051842      -35.797489
 H         -42.950203     -114.979355      -35.048203
 H         -44.304321     -114.665352      -36.116787
 H         -42.836506     -111.570213      -33.379051
 H         -42.278538     -113.203682      -33.346916
 H         -44.656490     -113.192688      -34.088974
 H         -44.200073     -112.157669      -35.445953
