20
 generated by VMD
 C         -12.049016      -41.587959       -7.508286
 N         -11.624279      -40.751125       -6.876291
 H         -14.210727      -40.816677       -8.158534
 H         -15.261785      -40.151894       -9.516202
 C         -14.890685      -41.052624       -8.983961
 C         -15.959336      -41.769775       -8.192381
 C         -14.312369      -42.030045      -10.010067
 C         -17.030071      -42.158924       -9.195413
 C         -15.370153      -42.566971      -10.947402
 C         -16.478807      -43.188938      -10.164136
 H         -16.422306      -41.165306       -7.404364
 H         -15.597177      -42.740612       -7.697148
 H         -13.458200      -41.531914      -10.508172
 H         -13.832095      -42.929729       -9.489826
 H         -17.555943      -41.257694       -9.621872
 H         -17.884817      -42.603790       -8.667596
 H         -14.876207      -43.305305      -11.549742
 H         -15.745051      -41.763805      -11.581354
 H         -17.224936      -43.459095      -10.866509
 H         -16.149530      -44.041222       -9.556445
