20
 generated by VMD
 C         -67.956413     -189.612549      -67.003807
 N         -66.937439     -189.077957      -67.287231
 H         -68.766815     -188.713455      -63.606293
 H         -68.781525     -190.250946      -66.825066
 C         -69.844749     -188.786240      -63.637566
 C         -70.539497     -190.017166      -63.857788
 C         -70.413628     -187.575455      -63.104172
 C         -72.076134     -189.844528      -64.183113
 C         -71.840584     -187.357971      -63.701878
 C         -72.723412     -188.611938      -63.530495
 H         -70.329247     -190.614532      -63.006035
 H         -70.080353     -190.626953      -64.602745
 H         -70.539505     -187.757599      -62.014545
 H         -69.750130     -186.741028      -63.447586
 H         -72.665634     -190.772705      -63.877563
 H         -72.271912     -189.825317      -65.251892
 H         -71.786827     -187.118088      -64.726051
 H         -72.037041     -186.481171      -63.117832
 H         -72.717751     -188.775620      -62.484447
 H         -73.850426     -188.620163      -63.710278
