20
 generated by VMD
 C         -69.537193     -185.077118      -66.676704
 N         -69.124832     -184.871124      -67.730301
 H         -69.215073     -183.422989      -63.227654
 H         -69.969482     -185.237610      -65.703072
 C         -69.222626     -183.281677      -62.162743
 C         -69.664040     -184.462112      -61.352695
 C         -68.166077     -182.455688      -61.550442
 C         -68.526604     -185.322235      -60.946404
 C         -66.882256     -183.279221      -61.353218
 C         -67.332100     -184.407272      -60.444672
 H         -70.406380     -185.114761      -61.782215
 H         -70.162590     -183.934052      -60.469814
 H         -67.863052     -181.650101      -62.260445
 H         -68.579308     -181.945587      -60.743034
 H         -68.208664     -186.006760      -61.808098
 H         -68.675812     -186.042801      -60.089870
 H         -66.026260     -182.776932      -60.888332
 H         -66.434029     -183.432358      -62.338573
 H         -66.527603     -185.051376      -60.228939
 H         -67.658607     -184.088257      -59.444405
