20
 generated by VMD
 C         -41.547470     -102.403404      -35.822102
 N         -41.499378     -103.560066      -35.778862
 H         -39.161831     -104.462563      -33.425934
 H         -41.907688     -101.335114      -35.806843
 C         -38.535854     -105.092896      -32.829166
 C         -37.142067     -104.678040      -32.928623
 C         -38.932465     -106.448540      -32.238144
 C         -36.552128     -104.913292      -31.565445
 C         -38.265171     -106.732056      -30.912832
 C         -36.756519     -106.238892      -30.923092
 H         -37.207142     -103.644188      -33.263283
 H         -36.665176     -105.289948      -33.788235
 H         -40.032703     -106.503723      -32.169506
 H         -38.665810     -107.221176      -32.962032
 H         -36.773396     -104.027275      -30.930906
 H         -35.446201     -104.858185      -31.576178
 H         -38.286324     -107.792213      -30.699606
 H         -38.893677     -106.243431      -30.061703
 H         -36.272076     -106.326355      -29.978928
 H         -36.204872     -107.030006      -31.550093
