20
 generated by VMD
 C         -12.881235      -27.208935       -2.252354
 N         -11.896898      -27.524521       -1.817875
 H         -10.434685      -26.101944       -4.519838
 H          -8.921981      -26.007065       -5.419270
 C          -9.368122      -26.397074       -4.536993
 C          -9.061509      -27.919556       -4.359724
 C          -8.786382      -25.627291       -3.318393
 C          -7.526432      -28.180807       -4.366156
 C          -7.303601      -25.908621       -3.125628
 C          -6.857203      -27.419546       -3.179829
 H          -9.407802      -28.473434       -5.302972
 H          -9.497476      -28.238523       -3.430769
 H          -8.902267      -24.549685       -3.577431
 H          -9.368155      -25.802061       -2.429847
 H          -7.053145      -27.914934       -5.369058
 H          -7.430640      -29.261934       -4.095706
 H          -7.080872      -25.609110       -2.091376
 H          -6.664755      -25.383154       -3.847074
 H          -5.768337      -27.383753       -3.351250
 H          -7.027376      -27.887194       -2.208232
