20
 generated by VMD
 C         -18.046406      -48.557568       -7.327334
 N         -18.017496      -48.354336       -6.224084
 H         -16.386526      -48.332035      -10.290697
 H         -15.880711      -48.979702      -11.857839
 C         -16.304457      -48.115639      -11.365954
 C         -15.325869      -46.927193      -11.601723
 C         -17.706556      -47.782127      -11.911795
 C         -15.290384      -46.566277      -13.045388
 C         -17.749292      -47.328747      -13.339048
 C         -16.699812      -46.251541      -13.553203
 H         -14.296548      -47.174355      -11.244106
 H         -15.560455      -46.118679      -10.906864
 H         -18.378839      -48.629654      -11.811528
 H         -18.147110      -47.025806      -11.241879
 H         -14.741210      -47.299767      -13.633740
 H         -14.783440      -45.614441      -13.141271
 H         -18.750387      -47.047905      -13.523977
 H         -17.430187      -48.153053      -13.995246
 H         -16.620604      -45.999035      -14.626193
 H         -17.004997      -45.364582      -12.991078
