20
 generated by VMD
 C         -42.368973     -120.507103      -35.060238
 N         -42.501263     -121.230171      -34.125099
 H         -43.681744     -120.376343      -37.588165
 H         -42.251690     -119.737030      -35.765926
 C         -43.946438     -119.602303      -38.359966
 C         -43.088490     -119.075539      -39.466843
 C         -45.211628     -118.883774      -38.084309
 C         -43.939270     -118.946281      -40.694035
 C         -45.955700     -118.548668      -39.419811
 C         -45.153870     -118.058586      -40.571976
 H         -42.302540     -119.857880      -39.692242
 H         -42.575882     -118.137039      -39.167809
 H         -45.926727     -119.512764      -37.470493
 H         -44.963978     -117.969521      -37.652546
 H         -44.235023     -119.991341      -40.926376
 H         -43.504852     -118.370605      -41.586643
 H         -46.909267     -117.944641      -39.190617
 H         -46.309181     -119.526894      -39.737095
 H         -45.862335     -117.951149      -41.362423
 H         -44.827518     -117.094177      -40.427074
