20
 generated by VMD
 C         -66.692009     -190.428253      -66.600670
 N         -67.802895     -190.246948      -66.218391
 H         -70.640381     -190.884003      -66.569016
 H         -65.667580     -190.337723      -66.926582
 C         -71.213242     -190.456665      -65.753914
 C         -72.366547     -191.232056      -65.116432
 C         -70.597633     -189.370941      -64.768196
 C         -73.244431     -190.306381      -64.390556
 C         -71.560287     -188.705215      -63.775883
 C         -72.500160     -189.645554      -63.245674
 H         -72.018738     -191.946762      -64.428818
 H         -72.913475     -191.597076      -65.959335
 H         -69.825546     -189.911758      -64.289192
 H         -70.098206     -188.688416      -65.351105
 H         -74.125816     -190.944733      -64.031403
 H         -73.730721     -189.584824      -65.068565
 H         -72.035133     -187.834488      -64.147903
 H         -70.968971     -188.251892      -62.946667
 H         -71.994598     -190.429367      -62.698025
 H         -73.115753     -189.123215      -62.570938
