20
 generated by VMD
 C         -68.101028     -179.138855      -58.303440
 N         -67.155128     -178.656097      -57.866955
 H         -65.889442     -176.159760      -58.738537
 H         -68.973320     -179.652893      -58.694542
 C         -65.309158     -175.786804      -59.593182
 C         -66.129250     -174.716049      -60.343250
 C         -63.857441     -175.941467      -59.642696
 C         -65.426376     -173.371414      -60.219364
 C         -63.114872     -174.632584      -59.716545
 C         -63.821152     -173.620804      -60.576649
 H         -67.081322     -174.574875      -59.872864
 H         -66.415939     -175.148834      -61.385784
 H         -63.652214     -176.325790      -58.688301
 H         -63.583511     -176.698257      -60.380299
 H         -65.506577     -172.881317      -59.229992
 H         -65.704979     -172.626541      -60.995678
 H         -62.063049     -174.840256      -60.094975
 H         -63.021111     -174.142014      -58.751400
 H         -63.420090     -172.619949      -60.519089
 H         -63.602600     -173.815445      -61.694504
