20
 generated by VMD
 C         -18.372622      -50.142448       -9.599810
 N         -19.432003      -50.456566       -9.428554
 H         -16.297434      -47.140583      -10.159756
 H         -17.488302      -48.535236      -10.326322
 C         -16.748068      -47.794910      -10.912654
 C         -15.711884      -48.734512      -11.460976
 C         -17.528286      -46.990791      -11.928918
 C         -16.275558      -49.684593      -12.502076
 C         -18.028353      -47.822617      -13.141747
 C         -16.965958      -48.787971      -13.589172
 H         -15.175448      -49.341331      -10.721704
 H         -15.001447      -48.052193      -11.931149
 H         -18.385969      -46.611458      -11.317407
 H         -16.960947      -46.087128      -12.305282
 H         -17.060886      -50.270885      -12.063756
 H         -15.437970      -50.274624      -12.882634
 H         -18.238773      -47.040775      -13.904700
 H         -18.983414      -48.373196      -12.965769
 H         -17.362055      -49.417896      -14.354763
 H         -16.209644      -48.219193      -14.107352
