20
 generated by VMD
 C         -21.597973      -65.805832      -16.907227
 N         -20.988918      -66.453415      -16.176016
 H         -24.061890      -63.936344      -18.081390
 H         -22.354643      -65.336098      -17.705254
 C         -24.413233      -64.922722      -18.461124
 C         -24.333553      -65.348633      -19.834818
 C         -25.416737      -65.696419      -17.472481
 C         -24.490416      -66.895081      -20.091827
 C         -25.261980      -67.220955      -17.635691
 C         -25.176376      -67.865761      -19.038113
 H         -23.355154      -65.133423      -20.225504
 H         -25.091595      -64.825691      -20.537054
 H         -25.103561      -65.458214      -16.452360
 H         -26.390665      -65.471642      -17.810312
 H         -23.462036      -67.155571      -20.124481
 H         -24.890537      -67.220123      -21.036589
 H         -26.166594      -67.664207      -17.197346
 H         -24.399857      -67.677528      -17.159937
 H         -24.834803      -68.896835      -18.985546
 H         -26.284204      -67.939873      -19.382744
