20
 generated by VMD
 C         -26.014004      -71.840996      -17.281069
 N         -26.701166      -72.535004      -16.637566
 H         -24.276636      -69.194992      -18.818163
 H         -25.349373      -71.316826      -17.834354
 C         -24.843483      -69.711311      -19.644279
 C         -24.038290      -70.801819      -20.365778
 C         -25.760427      -68.736305      -20.498274
 C         -25.053865      -71.618492      -21.109661
 C         -26.782528      -69.564247      -21.271919
 C         -26.040684      -70.756493      -22.006664
 H         -23.457718      -71.418526      -19.663660
 H         -23.343658      -70.022957      -20.892088
 H         -26.188469      -67.967377      -19.782892
 H         -25.141457      -68.189125      -21.207241
 H         -25.674965      -72.137772      -20.372938
 H         -24.536587      -72.419014      -21.729557
 H         -27.553782      -69.081001      -21.897221
 H         -27.398499      -70.004150      -20.464663
 H         -26.747852      -71.536224      -22.389406
 H         -25.451324      -70.366783      -22.862452
