20
 generated by VMD
 C         -69.321373     -180.364792      -59.841194
 N         -68.828484     -181.208557      -60.428055
 H         -67.252243     -177.603760      -59.627010
 H         -69.777588     -179.599457      -59.182381
 C         -66.437836     -177.010132      -59.861271
 C         -65.967354     -176.864792      -61.404026
 C         -65.357658     -176.922318      -58.790817
 C         -64.835648     -175.789291      -61.579918
 C         -64.132011     -176.067459      -59.217926
 C         -63.682011     -176.081665      -60.722485
 H         -66.801819     -176.421112      -61.961689
 H         -65.600731     -177.833878      -61.788677
 H         -65.626129     -176.604889      -57.775433
 H         -64.900833     -177.904221      -58.631752
 H         -65.137085     -174.647339      -61.471359
 H         -64.520134     -175.826080      -62.676548
 H         -63.255043     -176.420990      -58.625610
 H         -64.087463     -175.037796      -58.878105
 H         -62.866955     -175.402603      -60.701595
 H         -63.349434     -177.074234      -60.929111
