20
 generated by VMD
 C         -21.957890      -55.511177      -17.589504
 N         -21.012499      -55.778316      -18.210375
 H         -21.960459      -57.122959      -14.565875
 H         -22.806538      -55.401993      -16.765219
 C         -21.490469      -58.082600      -14.449053
 C         -21.400183      -58.858536      -13.124035
 C         -21.398350      -58.896931      -15.734237
 C         -21.001320      -60.316776      -13.355905
 C         -20.249269      -59.982727      -15.683270
 C         -19.862068      -60.399990      -14.268899
 H         -22.271217      -58.792477      -12.429190
 H         -20.580580      -58.304668      -12.621634
 H         -22.361561      -59.359982      -15.909381
 H         -21.193689      -58.279026      -16.635296
 H         -21.831615      -60.862541      -13.845040
 H         -20.839994      -60.898071      -12.436017
 H         -19.458643      -59.872879      -16.384634
 H         -20.746225      -60.837269      -16.137861
 H         -19.552433      -61.423260      -14.344170
 H         -19.054428      -59.785572      -13.941166
