20
 generated by VMD
 C         -38.450729     -108.907906      -36.657413
 N         -37.300087     -108.804237      -36.555820
 H         -41.569881     -109.674721      -36.136429
 H         -39.547783     -109.087051      -36.747379
 C         -41.911472     -110.582748      -35.570953
 C         -41.633396     -111.974358      -35.821766
 C         -42.773426     -110.226105      -34.356327
 C         -40.704979     -112.294739      -34.660782
 C         -41.953651     -110.731873      -33.254913
 C         -41.409645     -112.143929      -33.355679
 H         -41.175713     -112.153694      -36.808151
 H         -42.490623     -112.719353      -35.850811
 H         -42.953014     -109.166801      -34.104542
 H         -43.679073     -110.776108      -34.387787
 H         -39.811447     -111.755844      -34.764908
 H         -40.336323     -113.361671      -34.693203
 H         -42.543041     -110.600243      -32.297291
 H         -41.023293     -110.127602      -33.161667
 H         -40.679291     -112.163750      -32.552551
 H         -42.229469     -112.810982      -33.244297
