20
 generated by VMD
 C         -38.477158     -112.652748      -35.819706
 N         -38.043037     -112.017349      -36.701481
 H         -40.962440     -114.414185      -34.921539
 H         -38.962116     -113.076500      -34.895142
 C         -41.811192     -114.277634      -35.487144
 C         -41.925915     -114.531479      -36.979118
 C         -42.797020     -113.487099      -34.716499
 C         -43.357239     -114.714638      -37.369370
 C         -44.150455     -113.886940      -35.175346
 C         -44.312622     -113.724205      -36.644604
 H         -41.143810     -115.211647      -37.324078
 H         -41.526737     -113.649239      -37.400063
 H         -42.471149     -113.550453      -33.676331
 H         -42.687717     -112.409737      -34.969986
 H         -43.809883     -115.669006      -37.112583
 H         -43.532005     -114.697083      -38.416206
 H         -44.974209     -113.214203      -34.743031
 H         -44.348701     -114.987427      -35.041374
 H         -45.287785     -113.839821      -37.048431
 H         -44.036388     -112.630920      -36.902905
