20
 generated by VMD
 C         -19.840256      -60.909893      -17.096899
 N         -19.479374      -60.674095      -16.031513
 H         -22.473749      -61.738201      -18.076973
 H         -20.020317      -61.276077      -18.124395
 C         -23.152792      -62.491856      -17.603027
 C         -24.008745      -63.244255      -18.505911
 C         -22.893412      -62.819252      -16.155788
 C         -24.341423      -64.665298      -18.027447
 C         -23.364508      -64.177971      -15.775594
 C         -24.616982      -64.611153      -16.526421
 H         -23.645086      -63.226067      -19.518648
 H         -24.938612      -62.749004      -18.652681
 H         -21.834528      -62.611458      -16.072306
 H         -23.283888      -62.149055      -15.437625
 H         -23.552483      -65.353867      -18.178684
 H         -25.209251      -65.036377      -18.615192
 H         -23.511625      -64.338661      -14.698034
 H         -22.534489      -64.853020      -16.020969
 H         -24.880632      -65.663177      -16.314894
 H         -25.477894      -63.997196      -16.338831
