20
 generated by VMD
 C         -41.611259     -102.351006      -34.186573
 N         -40.980446     -101.808250      -34.997063
 H         -39.398815     -104.165886      -32.682148
 H         -42.445614     -102.633827      -33.473797
 C         -38.470150     -104.153969      -32.204006
 C         -37.356411     -103.705025      -33.048332
 C         -38.146004     -104.983818      -30.892586
 C         -36.104458     -103.352692      -32.208008
 C         -36.837902     -104.606781      -30.169621
 C         -35.737583     -104.469978      -31.230085
 H         -37.643776     -102.749489      -33.439987
 H         -37.153751     -104.495384      -33.901340
 H         -38.876953     -105.013237      -30.154999
 H         -38.062305     -106.035416      -31.332182
 H         -36.352589     -102.370651      -31.825600
 H         -35.245731     -103.215828      -32.854408
 H         -36.557091     -105.473793      -29.485596
 H         -36.946732     -103.748665      -29.555500
 H         -34.797894     -104.148064      -30.737322
 H         -35.554600     -105.353729      -31.754848
