20
 generated by VMD
 C          -1.123501      -13.399499        0.807555
 N          -0.329883      -13.454671        0.034458
 H          -4.560781      -13.458327        2.124093
 H          -5.510245      -13.547043        0.674885
 C          -5.173229      -14.146616        1.509802
 C          -6.356807      -14.621708        2.393385
 C          -4.385102      -15.457169        1.085346
 C          -7.279108      -15.553427        1.645592
 C          -5.242880      -16.500465        0.391765
 C          -6.470290      -16.830660        1.187685
 H          -6.861355      -13.753012        2.753230
 H          -5.879692      -15.228420        3.174341
 H          -3.535787      -15.152323        0.439091
 H          -4.007201      -15.941745        2.039059
 H          -7.754034      -15.098759        0.754789
 H          -8.048368      -15.871141        2.359186
 H          -4.609120      -17.376404        0.229176
 H          -5.498778      -16.065218       -0.583260
 H          -7.168975      -17.405003        0.586644
 H          -6.224919      -17.371389        2.080669
