20
 generated by VMD
 C          -1.706653       -9.485586       -0.109765
 N          -2.533659       -8.932896        0.376309
 H          -2.402373      -10.750965        2.549301
 H          -2.251593      -11.853841        3.976885
 C          -2.765465      -11.650487        3.049675
 C          -2.689342      -12.877084        2.073960
 C          -4.231149      -11.319016        3.303253
 C          -3.361282      -14.068700        2.705997
 C          -4.963602      -12.531738        3.861529
 C          -4.813256      -13.814318        3.019971
 H          -1.645865      -13.079650        1.889628
 H          -3.225063      -12.606322        1.125828
 H          -4.383204      -10.472697        3.968988
 H          -4.813889      -10.982300        2.386035
 H          -2.835302      -14.251353        3.664824
 H          -3.243173      -14.910153        2.024641
 H          -6.049213      -12.345229        3.949220
 H          -4.572343      -12.673689        4.926248
 H          -5.194514      -14.717592        3.466995
 H          -5.349788      -13.698900        2.085490
