20
 generated by VMD
 C         -76.105515     -202.727234      -66.450523
 N         -76.873100     -203.093292      -65.680000
 H         -75.653984     -200.263992      -68.638840
 H         -75.282837     -202.396622      -66.989204
 C         -74.873314     -199.632401      -69.034599
 C         -74.835892     -198.252274      -68.482597
 C         -73.736725     -200.178238      -69.942345
 C         -73.438538     -197.786179      -68.540047
 C         -73.204361     -198.953384      -70.861641
 C         -72.745193     -197.832474      -69.957283
 H         -75.215263     -198.169586      -67.441841
 H         -75.443413     -197.516602      -69.096123
 H         -72.781013     -200.492615      -69.402931
 H         -74.215675     -200.990891      -70.551224
 H         -72.779343     -198.236206      -67.769096
 H         -73.411156     -196.753525      -68.179695
 H         -74.018021     -198.710785      -71.535851
 H         -72.365669     -199.207275      -71.436188
 H         -71.677170     -197.800583      -69.732445
 H         -72.870483     -196.921509      -70.466904
