20
 generated by VMD
 C         -51.118614     -127.917046      -41.571571
 N         -51.944355     -128.641449      -41.873352
 H         -47.430794     -128.181137      -41.150684
 H         -50.243958     -127.281525      -41.492256
 C         -46.641785     -127.391296      -40.816101
 C         -45.417084     -127.814438      -40.067024
 C         -46.758068     -125.969315      -41.104633
 C         -44.187214     -127.314522      -40.789127
 C         -45.579838     -125.481056      -41.906395
 C         -44.254543     -125.788330      -41.169189
 H         -45.343098     -128.894501      -39.901955
 H         -45.423298     -127.459213      -38.987507
 H         -47.586548     -125.823112      -41.828995
 H         -46.890369     -125.396622      -40.221142
 H         -44.037907     -127.862831      -41.665924
 H         -43.337326     -127.465240      -40.111649
 H         -45.608742     -124.381752      -41.974705
 H         -45.531178     -125.946556      -42.875820
 H         -43.429249     -125.362129      -41.772366
 H         -44.443844     -125.181152      -40.240776
