20
 generated by VMD
 C         -37.985924     -109.830879      -36.373047
 N         -37.447353     -108.880157      -35.968719
 H         -40.351837     -112.731041      -36.794979
 H         -38.659801     -110.630173      -36.476852
 C         -41.290527     -112.678040      -36.265003
 C         -42.376003     -113.742332      -36.513817
 C         -41.497822     -111.589890      -35.216503
 C         -43.307880     -114.172577      -35.286690
 C         -42.379807     -112.083534      -34.000114
 C         -43.572636     -112.948982      -34.409672
 H         -41.855373     -114.610970      -36.922367
 H         -43.037609     -113.530106      -37.365757
 H         -40.564861     -111.112625      -34.817219
 H         -42.007336     -110.815590      -35.814823
 H         -42.823391     -114.932686      -34.665668
 H         -44.208366     -114.504272      -35.658592
 H         -42.818275     -111.189598      -33.653313
 H         -41.829987     -112.601868      -33.228439
 H         -44.025753     -113.416862      -33.409565
 H         -44.346455     -112.415298      -34.892208
