20
 generated by VMD
 C          -3.457952      -19.515369        3.008677
 N          -3.555582      -18.413025        3.140644
 H          -5.621631      -20.385630        0.102547
 H          -6.386722      -21.295586       -1.214322
 C          -6.231244      -20.303118       -0.768334
 C          -5.589451      -19.404289       -1.842144
 C          -7.543210      -19.718607       -0.245777
 C          -6.572164      -19.066366       -2.963019
 C          -8.544128      -19.549421       -1.301003
 C          -7.968669      -18.671568       -2.412383
 H          -4.730883      -20.047918       -2.178253
 H          -5.153250      -18.534382       -1.463647
 H          -7.951572      -20.433395        0.488701
 H          -7.321248      -18.763321        0.314141
 H          -6.579803      -19.967226       -3.618716
 H          -6.175249      -18.196545       -3.478983
 H          -9.453416      -19.037392       -0.921868
 H          -8.857964      -20.508842       -1.707281
 H          -8.726497      -18.630266       -3.178081
 H          -7.951257      -17.651737       -2.036500
