20
 generated by VMD
 C         -61.636806     -156.072296      -54.450905
 N         -61.019733     -155.118851      -54.034122
 H         -58.884258     -155.000290      -51.914413
 H         -62.210865     -156.956680      -54.762024
 C         -57.848644     -155.117584      -51.557980
 C         -57.507824     -154.454041      -50.274738
 C         -56.706852     -155.516541      -52.544155
 C         -56.189568     -155.015381      -49.658314
 C         -55.462337     -156.171555      -51.820450
 C         -55.064934     -155.165054      -50.650364
 H         -58.386948     -154.738449      -49.657532
 H         -57.421074     -153.355667      -50.291046
 H         -57.272381     -156.110870      -53.284367
 H         -56.160904     -154.650299      -52.993324
 H         -56.375095     -155.942825      -49.094994
 H         -55.808048     -154.279648      -48.866318
 H         -54.600956     -156.465195      -52.479340
 H         -55.719250     -157.111603      -51.294743
 H         -54.120846     -155.471802      -50.049881
 H         -54.838444     -154.185364      -50.978752
