20
 generated by VMD
 C         -48.271812     -140.528214      -45.570610
 N         -47.144993     -140.274078      -45.533005
 H         -51.246414     -138.413727      -45.688255
 H         -49.256653     -141.032730      -45.589645
 C         -52.015316     -139.155945      -45.886780
 C         -52.432125     -139.343826      -47.384338
 C         -53.056759     -139.526840      -44.893623
 C         -53.249355     -140.665558      -47.607620
 C         -54.058567     -140.697525      -45.186478
 C         -54.515285     -140.530960      -46.652939
 H         -51.408527     -139.386566      -47.927017
 H         -53.074650     -138.497696      -47.694645
 H         -52.472244     -139.618866      -43.967834
 H         -53.753010     -138.683868      -44.703907
 H         -52.689800     -141.519760      -47.316521
 H         -53.519981     -140.808731      -48.612949
 H         -54.907516     -140.728882      -44.556332
 H         -53.637527     -141.719223      -45.211819
 H         -55.203354     -141.303955      -46.881199
 H         -55.075214     -139.613815      -46.921616
