20
 generated by VMD
 C         -30.725458      -75.849121      -22.462044
 N         -31.211332      -74.796776      -22.724375
 H         -28.755594      -78.192230      -21.497482
 H         -30.112303      -76.740150      -22.452438
 C         -27.921064      -77.527939      -21.720419
 C         -26.748268      -78.101768      -22.473490
 C         -27.650572      -76.569916      -20.683613
 C         -25.993223      -76.980766      -23.060114
 C         -26.852402      -75.411995      -21.152534
 C         -25.678093      -75.828140      -22.096657
 H         -27.067617      -78.774796      -23.290661
 H         -26.186457      -78.678947      -21.685936
 H         -28.473600      -76.185081      -20.147501
 H         -26.962357      -77.104889      -19.898153
 H         -26.445126      -76.648865      -24.020351
 H         -25.028999      -77.430664      -23.223976
 H         -26.454556      -74.815613      -20.282309
 H         -27.419931      -74.660553      -21.701567
 H         -24.993555      -75.086586      -22.580721
 H         -24.946428      -76.248726      -21.382040
