20
 generated by VMD
 C         -12.620944      -27.999094       -5.580086
 N         -13.136234      -28.403828       -6.489811
 H         -12.007457      -31.699650       -4.604217
 H         -11.172826      -30.110088       -5.132370
 C         -11.064388      -31.134663       -4.652422
 C          -9.986663      -31.978405       -5.362435
 C         -10.652294      -30.864101       -3.175028
 C          -8.551970      -31.320673       -5.236361
 C          -9.355698      -30.027288       -3.062644
 C          -8.204175      -30.739738       -3.778155
 H         -10.047419      -32.134937       -6.479487
 H          -9.942306      -32.895096       -4.861862
 H         -11.460487      -30.354368       -2.707137
 H         -10.466252      -31.811220       -2.649799
 H          -8.371831      -30.599884       -5.985287
 H          -7.850058      -32.129726       -5.385242
 H          -9.123386      -29.939409       -1.992422
 H          -9.416435      -29.008163       -3.470642
 H          -7.404614      -30.048550       -4.018503
 H          -7.822231      -31.607161       -3.135824
