20
 generated by VMD
 C         -27.951687      -72.591805      -17.960470
 N         -28.108654      -73.565964      -17.389864
 H         -24.953640      -71.270851      -18.717184
 H         -27.553722      -71.793175      -18.495758
 C         -25.109758      -71.271812      -19.748489
 C         -24.374405      -72.232185      -20.568911
 C         -25.859953      -70.131248      -20.349630
 C         -25.185272      -72.684402      -21.686930
 C         -26.329826      -70.458046      -21.874796
 C         -25.741486      -71.586777      -22.585585
 H         -24.209169      -73.095009      -20.036369
 H         -23.405249      -71.838997      -20.921335
 H         -26.749178      -69.923111      -19.777288
 H         -25.250235      -69.231659      -20.429377
 H         -26.009388      -73.320755      -21.292372
 H         -24.470846      -73.278023      -22.271673
 H         -26.395554      -69.619720      -22.527042
 H         -27.371634      -70.586281      -21.763933
 H         -26.535992      -71.942940      -23.364944
 H         -24.821260      -71.250259      -23.097706
