20
 generated by VMD
 C         -47.728802     -139.533798      -45.968098
 N         -46.715893     -139.100601      -46.172802
 H         -50.910095     -138.544998      -45.005230
 H         -48.588123     -140.095139      -45.763199
 C         -51.816006     -139.092880      -45.257866
 C         -51.947720     -139.348557      -46.737148
 C         -53.147907     -138.771667      -44.497902
 C         -53.012928     -140.349991      -47.004425
 C         -54.223289     -139.776443      -44.834248
 C         -54.354229     -139.954742      -46.471485
 H         -50.915260     -139.779404      -47.035625
 H         -52.198608     -138.374146      -47.225773
 H         -52.829376     -138.932755      -43.457542
 H         -53.626213     -137.823898      -44.644428
 H         -52.796223     -141.331284      -46.510681
 H         -53.122681     -140.571945      -48.079994
 H         -55.099808     -139.374237      -44.410805
 H         -54.042377     -140.860046      -44.492687
 H         -55.159325     -140.777817      -46.648388
 H         -54.535263     -139.002670      -46.971561
