20
 generated by VMD
 C         -40.088696     -104.788322      -36.017319
 N         -39.473698     -104.555420      -36.997036
 H         -40.315804     -107.921158      -35.266102
 H         -40.608242     -105.109894      -35.131329
 C         -39.866184     -108.183685      -34.321293
 C         -38.883118     -107.181496      -33.679367
 C         -40.192924     -109.429588      -33.489079
 C         -39.019680     -107.038628      -32.208282
 C         -39.949348     -109.305580      -31.969868
 C         -38.759136     -108.513603      -31.574713
 H         -39.069725     -106.209206      -34.162125
 H         -37.839680     -107.539246      -33.841553
 H         -41.265102     -109.548248      -33.790394
 H         -39.588985     -110.234772      -33.901127
 H         -40.012039     -106.588196      -31.983452
 H         -38.217266     -106.295128      -31.857492
 H         -39.754417     -110.340408      -31.482527
 H         -40.818199     -109.015137      -31.398914
 H         -38.674477     -108.342819      -30.435455
 H         -37.768555     -108.869385      -31.805355
