20
 generated by VMD
 C         -68.746063     -180.066208      -59.201324
 N         -68.346100     -180.394363      -60.243107
 H         -67.310387     -177.631989      -59.801132
 H         -69.038712     -179.801697      -58.223923
 C         -66.496399     -176.775452      -59.930935
 C         -66.073257     -176.403122      -61.401604
 C         -65.257103     -177.097122      -59.042946
 C         -64.889832     -175.487518      -61.524498
 C         -64.174057     -176.061386      -59.071651
 C         -63.706200     -175.856903      -60.614742
 H         -66.971039     -176.028732      -61.879684
 H         -65.806267     -177.331009      -61.903790
 H         -65.682457     -177.183334      -57.991459
 H         -64.889091     -178.086502      -59.304207
 H         -65.343224     -174.456161      -61.046745
 H         -64.722717     -175.351395      -62.593506
 H         -63.292332     -176.417648      -58.589569
 H         -64.406754     -175.096664      -58.622654
 H         -63.080040     -174.992462      -60.455009
 H         -63.123062     -176.673019      -61.052059
