20
 generated by VMD
 C          -1.506449      -16.961466        2.110622
 N          -1.565818      -17.424490        3.124464
 H          -5.153841      -16.906078        0.736301
 H          -5.035693      -18.213057       -0.450817
 C          -5.735645      -17.495983        0.036524
 C          -6.464592      -16.606188       -0.991181
 C          -6.737446      -18.502525        0.687591
 C          -7.045040      -17.525532       -2.090505
 C          -7.538565      -19.289827       -0.331802
 C          -8.071421      -18.501610       -1.517020
 H          -5.665425      -15.926250       -1.404115
 H          -7.284377      -16.029634       -0.592252
 H          -6.206792      -19.201122        1.290809
 H          -7.443216      -17.960089        1.251533
 H          -6.181028      -18.108095       -2.586591
 H          -7.474529      -16.929235       -2.932892
 H          -8.437600      -19.735792        0.146820
 H          -6.972240      -20.123222       -0.679640
 H          -8.368795      -19.219673       -2.273538
 H          -9.051350      -18.062967       -1.255458
