20
 generated by VMD
 C          -2.486563       -8.696368       -0.626808
 N          -1.500832       -8.384127       -0.123436
 H          -2.923408       -9.548614        2.903117
 H          -1.850154      -10.771131        3.377433
 C          -2.916123      -10.643069        3.200207
 C          -3.394480      -11.590473        2.133631
 C          -3.720826      -10.895887        4.520005
 C          -3.312509      -13.082112        2.505706
 C          -3.633129      -12.339908        4.895196
 C          -4.112581      -13.289354        3.810364
 H          -2.768406      -11.469399        1.249520
 H          -4.420808      -11.402824        1.758449
 H          -3.360583      -10.323071        5.347921
 H          -4.769308      -10.643383        4.317517
 H          -2.299396      -13.443989        2.708785
 H          -3.754610      -13.761949        1.770164
 H          -4.297313      -12.530501        5.719180
 H          -2.585623      -12.589695        5.165341
 H          -3.942572      -14.310886        4.158696
 H          -5.218706      -13.211027        3.766402
