20
 generated by VMD
 C         -59.600792     -157.685181      -56.676685
 N         -59.014835     -158.699524      -56.877422
 H         -60.445889     -157.705948      -53.214458
 H         -60.136822     -156.782700      -56.310307
 C         -59.891384     -158.506165      -52.724426
 C         -58.442116     -158.334702      -52.341637
 C         -60.346340     -159.934494      -52.949841
 C         -57.942211     -159.449081      -51.360020
 C         -59.792732     -161.032516      -52.103477
 C         -58.276501     -160.832870      -51.988461
 H         -58.287273     -157.240585      -51.978016
 H         -57.882561     -158.275375      -53.324005
 H         -61.424145     -160.095245      -52.792236
 H         -60.041569     -160.130203      -53.916233
 H         -58.350395     -159.394669      -50.414249
 H         -56.835228     -159.180786      -51.408546
 H         -60.090866     -161.917572      -52.640594
 H         -60.053108     -161.103149      -51.076862
 H         -57.834618     -161.596634      -51.359543
 H         -57.967003     -160.857162      -53.118828
