20
 generated by VMD
 C         -68.501915     -185.386154      -66.758263
 N         -67.773529     -186.239868      -67.039330
 H         -69.762527     -184.086517      -64.196198
 H         -69.288689     -184.601547      -66.566124
 C         -69.569328     -184.792511      -63.346916
 C         -70.784431     -185.135437      -62.533981
 C         -68.243431     -185.475372      -63.089069
 C         -70.431686     -185.494461      -61.085449
 C         -68.150116     -186.215866      -61.826641
 C         -69.389282     -186.631912      -61.088627
 H         -71.445114     -185.942688      -63.011131
 H         -71.507179     -184.276825      -62.448486
 H         -68.359451     -186.068588      -64.036880
 H         -67.375175     -184.771881      -63.185318
 H         -71.210976     -185.803711      -60.372173
 H         -70.016624     -184.573975      -60.616802
 H         -67.464561     -185.682831      -61.129295
 H         -67.660103     -187.242249      -61.980175
 H         -69.854591     -187.449432      -61.631763
 H         -69.283165     -186.890884      -60.003422
