20
 generated by VMD
 C          -1.335358      -11.930950        1.525349
 N          -1.025048      -12.470075        0.572606
 H          -3.799133      -13.048307        0.817784
 H          -5.462951      -12.929973        0.687024
 C          -4.706563      -13.655322        1.018028
 C          -4.782723      -13.888473        2.479910
 C          -4.681164      -14.974060        0.191738
 C          -5.869045      -14.829590        2.954029
 C          -5.871745      -15.892167        0.598695
 C          -5.858918      -16.094603        2.122193
 H          -4.941675      -12.839028        2.884814
 H          -3.798002      -14.275911        2.694978
 H          -4.771917      -14.782739       -0.828475
 H          -3.755879      -15.452721        0.370931
 H          -6.833182      -14.317980        3.018156
 H          -5.535831      -15.065549        4.006443
 H          -5.764810      -16.851318        0.025072
 H          -6.808003      -15.390779        0.283869
 H          -6.661159      -16.757059        2.376285
 H          -4.939089      -16.645992        2.306172
