20
 generated by VMD
 C         -57.980736     -165.591049      -56.344803
 N         -57.244701     -165.060760      -57.049648
 H         -60.319809     -164.686646      -54.325939
 H         -58.581158     -166.128967      -55.666840
 C         -61.331551     -164.833359      -54.637951
 C         -61.903690     -166.257141      -54.447506
 C         -61.838821     -163.880341      -55.699806
 C         -63.329193     -166.331085      -54.736214
 C         -63.314404     -164.097092      -55.759869
 C         -63.777840     -165.518005      -55.959934
 H         -61.736977     -166.538620      -53.452930
 H         -61.354111     -166.904251      -55.108368
 H         -61.541794     -162.931702      -55.360500
 H         -61.328819     -164.126572      -56.583424
 H         -64.020576     -166.018097      -54.048962
 H         -63.602047     -167.308426      -54.892960
 H         -63.535915     -163.457932      -56.630035
 H         -63.858593     -163.451523      -54.959110
 H         -64.877655     -165.511902      -55.940582
 H         -63.423019     -165.807907      -56.970657
