20
 generated by VMD
 C         -30.408047      -93.018677      -25.070457
 N         -29.967947      -93.889252      -25.710577
 H         -33.490593      -91.763550      -26.387556
 H         -30.929497      -92.266838      -24.414415
 C         -34.000862      -91.410591      -27.338013
 C         -35.237247      -92.259789      -27.705269
 C         -33.318207      -90.848099      -28.551022
 C         -36.184860      -91.530212      -28.663507
 C         -34.142342      -90.195656      -29.607908
 C         -35.435650      -91.099670      -29.903543
 H         -35.876984      -92.572784      -26.682570
 H         -34.815006      -93.238235      -28.094437
 H         -32.549011      -90.107857      -28.216789
 H         -32.814537      -91.650810      -29.091904
 H         -36.652317      -90.662338      -28.163668
 H         -37.023968      -92.195168      -28.860449
 H         -33.634010      -90.151375      -30.540497
 H         -34.605053      -89.227348      -29.500347
 H         -36.227394      -90.477844      -30.475836
 H         -35.161011      -91.903534      -30.595196
