20
 generated by VMD
 C          -3.751100      -17.880398        1.947803
 N          -3.112750      -18.437866        2.671531
 H          -5.625453      -20.528257        0.547357
 H          -6.052210      -21.317410       -0.921830
 C          -6.159625      -20.336432       -0.400743
 C          -5.508252      -19.087545       -1.099357
 C          -7.628219      -20.023298       -0.151264
 C          -6.293030      -18.474819       -2.291538
 C          -8.352922      -19.347717       -1.291210
 C          -7.691240      -18.145746       -1.923548
 H          -4.486774      -19.332226       -1.376383
 H          -5.385406      -18.345087       -0.293024
 H          -8.166926      -21.016138        0.204916
 H          -7.706006      -19.319618        0.742789
 H          -6.265079      -19.203190       -3.179950
 H          -5.777218      -17.581726       -2.693225
 H          -9.371389      -19.079849       -1.032678
 H          -8.453502      -20.090340       -2.104708
 H          -8.300164      -17.771765       -2.772110
 H          -7.679600      -17.385040       -1.147703
