20
 generated by VMD
 C         -41.581009     -102.394905      -35.779110
 N         -41.482872     -103.546669      -35.797581
 H         -39.420277     -104.608620      -33.291451
 H         -41.489685     -101.274300      -35.724770
 C         -38.667103     -105.050919      -32.723404
 C         -37.160366     -104.674294      -32.955681
 C         -38.839470     -106.439384      -32.285152
 C         -36.472477     -104.889595      -31.570887
 C         -38.205734     -106.636635      -30.898417
 C         -36.815693     -106.258453      -30.965002
 H         -36.863491     -103.692574      -33.297352
 H         -36.650394     -105.451752      -33.632648
 H         -39.865200     -106.603615      -32.068653
 H         -38.473206     -107.265694      -32.989468
 H         -36.986965     -104.178459      -30.808064
 H         -35.357929     -104.679214      -31.697458
 H         -38.326111     -107.682747      -30.718708
 H         -38.703648     -106.065598      -29.998014
 H         -36.485489     -106.164474      -29.917328
 H         -36.165646     -106.980759      -31.470533
