20
 generated by VMD
 C          -6.901105      -23.320295        2.743526
 N          -6.990902      -22.537510        1.934066
 H          -8.300399      -22.890352       -0.622239
 H          -9.140615      -22.247152       -2.077063
 C          -8.125992      -22.425453       -1.647293
 C          -7.224403      -23.157177       -2.616010
 C          -7.585895      -21.029083       -1.385077
 C          -6.999632      -22.350412       -3.913366
 C          -7.400277      -20.149494       -2.624070
 C          -6.539637      -20.850676       -3.689972
 H          -7.460907      -24.236469       -2.819824
 H          -6.287719      -23.304796       -2.062493
 H          -8.280757      -20.537128       -0.642906
 H          -6.563771      -21.155001       -1.051036
 H          -8.032062      -22.281694       -4.345971
 H          -6.242700      -22.791523       -4.623686
 H          -6.848223      -19.231689       -2.289699
 H          -8.361965      -19.973883       -3.149308
 H          -6.612580      -20.242195       -4.628180
 H          -5.453365      -20.903980       -3.416831
