20
 generated by VMD
 C         -52.493732     -146.973816      -45.314297
 N         -53.361279     -147.394867      -44.660576
 H         -54.841682     -147.071884      -47.943356
 H         -51.696659     -146.735687      -46.005714
 C         -54.591324     -146.220337      -48.519135
 C         -53.378971     -146.127060      -49.351055
 C         -55.256325     -145.027374      -48.117329
 C         -53.344078     -144.977737      -50.324230
 C         -55.212215     -143.877151      -49.034817
 C         -53.856972     -143.693771      -49.636967
 H         -53.161716     -147.139130      -49.735371
 H         -52.633751     -146.010147      -48.630993
 H         -56.315739     -145.282578      -47.895786
 H         -54.941219     -144.849075      -47.121490
 H         -53.759964     -145.265671      -51.249908
 H         -52.383160     -144.705719      -50.764626
 H         -55.501751     -142.895477      -48.484818
 H         -55.996937     -143.975403      -49.770428
 H         -53.790691     -142.951202      -50.384796
 H         -53.161926     -143.327560      -48.908634
