20
 generated by VMD
 C         -72.173912     -199.277481      -64.960762
 N         -71.035187     -199.117676      -64.984985
 H         -71.969803     -196.547928      -66.518158
 H         -73.255295     -199.143204      -65.095810
 C         -72.588303     -195.976929      -67.223770
 C         -72.848076     -194.444336      -67.005882
 C         -72.940750     -196.500931      -68.633186
 C         -73.829567     -193.768707      -67.960213
 C         -74.365898     -196.146988      -68.999092
 C         -74.878716     -194.793335      -68.431831
 H         -71.920502     -193.870682      -66.911224
 H         -73.557907     -194.412720      -66.054428
 H         -72.280663     -196.151794      -69.412430
 H         -72.847237     -197.565811      -68.608353
 H         -73.183418     -193.414932      -68.776047
 H         -74.325172     -192.943604      -67.491211
 H         -75.089645     -196.905365      -68.731674
 H         -74.262177     -196.127136      -70.116707
 H         -75.518028     -194.250046      -69.157822
 H         -75.381622     -195.032349      -67.391609
