20
 generated by VMD
 C         -40.041599      -99.539062      -28.752554
 N         -39.235161     -100.052223      -28.120575
 H         -37.421898      -98.653831      -30.539845
 H         -40.659718      -98.833389      -29.391659
 C         -36.448639      -98.373016      -30.710676
 C         -35.811230      -98.786530      -32.037209
 C         -35.489708      -98.267860      -29.630817
 C         -34.646698      -97.878700      -32.375801
 C         -34.350647      -97.237900      -29.999201
 C         -33.498737      -97.823257      -31.299265
 H         -36.498043      -98.934578      -32.876984
 H         -35.264896      -99.720375      -31.921783
 H         -35.964222      -97.814735      -28.788227
 H         -35.179485      -99.295944      -29.418997
 H         -35.013123      -96.860397      -32.520203
 H         -34.098412      -98.200058      -33.216072
 H         -33.663284      -97.107361      -29.154726
 H         -34.937191      -96.277763      -30.183201
 H         -32.717262      -97.119347      -31.568424
 H         -33.151928      -98.818542      -30.941282
