20
 generated by VMD
 C          -3.168865      -17.551531        2.540724
 N          -3.123495      -18.085638        1.566472
 H          -5.390327      -19.751574        0.936947
 H          -5.630328      -20.327448       -0.726083
 C          -5.933221      -19.514849       -0.017222
 C          -5.462625      -18.219645       -0.701219
 C          -7.373360      -19.700987        0.143352
 C          -6.270468      -18.096052       -2.005160
 C          -8.171158      -19.410929       -1.086191
 C          -7.782118      -18.128754       -1.750744
 H          -4.392259      -18.232136       -0.926695
 H          -5.697521      -17.353746       -0.026881
 H          -7.531043      -20.774595        0.471133
 H          -7.836675      -18.972172        0.934724
 H          -6.021837      -18.900280       -2.701705
 H          -6.014788      -17.085613       -2.446703
 H          -9.223397      -19.372334       -0.820624
 H          -7.994373      -20.228971       -1.745340
 H          -8.294154      -17.971771       -2.704127
 H          -7.986206      -17.281406       -1.058414
