20
 generated by VMD
 C         -12.659071      -30.138742       -7.709318
 N         -13.649224      -29.636559       -7.849586
 H         -11.383230      -30.211645       -4.853189
 H         -10.350111      -30.497189       -3.451524
 C         -10.776361      -31.007824       -4.430256
 C          -9.712891      -31.459698       -5.475700
 C         -11.580016      -32.193237       -4.005537
 C          -8.903234      -32.659065       -4.888745
 C         -10.825345      -33.315773       -3.302547
 C          -9.744557      -33.757267       -4.274853
 H          -8.922902      -30.656858       -5.613731
 H         -10.128870      -31.690836       -6.428427
 H         -12.320576      -31.829712       -3.273092
 H         -12.205789      -32.598988       -4.833720
 H          -8.165039      -32.280674       -4.162817
 H          -8.243113      -32.989040       -5.717477
 H         -11.474803      -34.153446       -3.099075
 H         -10.557205      -32.898430       -2.334568
 H          -9.013433      -34.473595       -3.806616
 H         -10.139400      -34.425671       -5.108931
