20
 generated by VMD
 C         -78.725250     -204.318817      -70.549889
 N         -79.900948     -204.437241      -70.378723
 H         -76.673363     -203.368561      -68.546875
 H         -77.686981     -204.088272      -70.869965
 C         -75.775459     -203.048004      -69.007965
 C         -75.584557     -201.709732      -69.632439
 C         -74.439026     -203.748795      -68.870201
 C         -74.730499     -201.785706      -70.832779
 C         -73.148003     -202.902481      -69.185287
 C         -73.261909     -201.906204      -70.290565
 H         -75.247574     -200.896622      -68.958717
 H         -76.606766     -201.434540      -69.884338
 H         -74.282578     -204.159317      -67.876434
 H         -74.485756     -204.540253      -69.560745
 H         -74.801285     -200.855164      -71.329155
 H         -75.004364     -202.567902      -71.527687
 H         -72.229088     -203.616440      -69.334183
 H         -72.984253     -202.437103      -68.192780
 H         -72.869102     -200.904083      -69.856834
 H         -72.594101     -202.329437      -71.080864
