20
 generated by VMD
 C         -56.104336     -150.033447      -47.414742
 N         -57.120186     -150.237381      -46.835770
 H         -53.404537     -147.857025      -47.468502
 H         -55.108219     -150.008118      -47.905811
 C         -53.748421     -147.665222      -48.468395
 C         -53.234356     -148.284195      -49.638222
 C         -54.573505     -146.504364      -48.568497
 C         -54.143818     -148.287094      -50.802483
 C         -55.460545     -146.307999      -49.803349
 C         -54.719555     -146.856155      -50.949005
 H         -52.701786     -149.322052      -49.354771
 H         -52.348518     -147.715530      -49.823029
 H         -55.406689     -146.528229      -47.787369
 H         -54.089024     -145.583099      -48.313480
 H         -54.945869     -149.039658      -50.707058
 H         -53.551182     -148.724350      -51.627033
 H         -55.652618     -145.225357      -49.884190
 H         -56.405983     -146.754074      -49.727970
 H         -55.435863     -146.922333      -51.828838
 H         -53.926704     -146.203781      -51.348770
