20
 generated by VMD
 C         -78.774223     -207.909042      -76.726448
 N         -78.651413     -207.987640      -75.570618
 H         -79.201302     -209.977966      -73.489059
 H         -78.728722     -207.777069      -77.761848
 C         -78.728271     -210.212189      -72.483643
 C         -77.399948     -209.514603      -72.286987
 C         -79.105438     -211.321609      -71.558060
 C         -77.173264     -209.181442      -70.823044
 C         -78.683289     -211.166702      -70.009598
 C         -77.282349     -210.453415      -69.970711
 H         -77.176384     -208.714813      -73.001625
 H         -76.735260     -210.299408      -72.528709
 H         -80.178673     -211.383575      -71.534943
 H         -78.788574     -212.274734      -71.970703
 H         -77.883614     -208.466446      -70.456291
 H         -76.226074     -208.731094      -70.543961
 H         -78.700951     -212.140091      -69.555367
 H         -79.373016     -210.450089      -69.393166
 H         -76.954506     -210.300949      -68.941719
 H         -76.490578     -211.102463      -70.461166
