20
 generated by VMD
 C         -50.506840     -145.077621      -45.141975
 N         -50.486713     -145.525665      -44.097565
 H         -52.977089     -143.404251      -45.931412
 H         -50.539326     -144.570801      -46.107307
 C         -53.507282     -143.290237      -46.906483
 C         -52.573235     -143.237900      -48.151928
 C         -54.761692     -142.439865      -47.002960
 C         -53.427471     -143.375778      -49.473289
 C         -55.363678     -142.510193      -48.370113
 C         -54.464931     -142.342072      -49.522015
 H         -51.877029     -144.133545      -48.090172
 H         -51.856358     -142.454407      -48.038933
 H         -55.511383     -142.798126      -46.379704
 H         -54.458149     -141.473068      -46.865551
 H         -53.771912     -144.417343      -49.542931
 H         -52.664742     -143.158661      -50.205692
 H         -56.144634     -141.683411      -48.477036
 H         -55.989086     -143.384018      -48.299831
 H         -55.009422     -142.416306      -50.406715
 H         -54.235546     -141.320602      -49.577438
