20
 generated by VMD
 C          -2.028020       -8.660108       -0.719190
 N          -1.943703       -8.066390        0.209893
 H          -3.385683       -9.503284        2.868437
 H          -1.873724      -10.339107        2.886602
 C          -2.981676      -10.454187        3.077600
 C          -3.581212      -11.485213        2.184541
 C          -3.429545      -10.707851        4.531695
 C          -3.391931      -12.875144        2.574965
 C          -3.156042      -12.144877        4.998312
 C          -3.896081      -13.038989        4.014324
 H          -3.105241      -11.505448        1.175673
 H          -4.627193      -11.237451        2.016323
 H          -2.980886       -9.912005        5.204432
 H          -4.518948      -10.474417        4.676826
 H          -2.354121      -13.197812        2.641927
 H          -3.891695      -13.643690        1.971559
 H          -3.609674      -12.325233        5.992890
 H          -2.114779      -12.368547        5.069364
 H          -3.919299      -14.065399        4.382848
 H          -4.964302      -12.801381        3.986326
