20
 generated by VMD
 C          -2.613007      -17.991747        2.643040
 N          -2.004754      -17.176517        2.177059
 H          -5.372572      -18.516357        1.092780
 H          -5.224956      -19.521963       -0.277044
 C          -5.806584      -18.706606        0.142019
 C          -5.824947      -17.543386       -0.843287
 C          -7.225727      -19.215391        0.447567
 C          -6.703397      -17.804173       -2.163374
 C          -7.959107      -19.440639       -0.891120
 C          -8.082065      -18.268559       -1.804124
 H          -4.850262      -17.310032       -1.339558
 H          -6.192742      -16.626877       -0.374326
 H          -7.123002      -20.227621        0.946398
 H          -7.790564      -18.451313        1.155425
 H          -6.155463      -18.587421       -2.760153
 H          -6.760078      -16.868006       -2.715484
 H          -8.942639      -19.789354       -0.655932
 H          -7.414824      -20.171612       -1.462249
 H          -8.684233      -18.506359       -2.682465
 H          -8.606512      -17.466381       -1.280936
