20
 generated by VMD
 C         -73.843094     -201.592575      -65.338913
 N         -72.844879     -201.069656      -65.632942
 H         -74.843460     -198.051147      -66.844788
 H         -74.798027     -201.920685      -64.853111
 C         -74.723770     -197.540756      -67.823746
 C         -74.748405     -196.052872      -67.875893
 C         -74.112572     -198.447510      -68.850494
 C         -73.484734     -195.400940      -68.494247
 C         -73.644707     -197.658615      -70.023659
 C         -72.811020     -196.375168      -69.518288
 H         -74.894638     -195.936569      -66.747536
 H         -75.592575     -195.767456      -68.448013
 H         -73.267845     -199.001984      -68.407516
 H         -74.833389     -199.174942      -69.237442
 H         -72.787453     -195.072617      -67.679138
 H         -73.827637     -194.450790      -68.900276
 H         -74.541763     -197.285828      -70.612411
 H         -73.117508     -198.277924      -70.734802
 H         -71.810257     -196.682449      -69.206497
 H         -72.507362     -195.778809      -70.374329
