20
 generated by VMD
 C          -3.712343      -20.208483        3.330428
 N          -4.193300      -19.265545        2.985878
 H          -5.325953      -19.839148       -0.021075
 H          -6.239169      -21.123270       -0.681949
 C          -6.093424      -20.039665       -0.790724
 C          -5.625051      -19.508070       -2.212056
 C          -7.357304      -19.232515       -0.354915
 C          -6.764229      -19.811398       -3.210163
 C          -8.501322      -19.669949       -1.244126
 C          -8.127463      -19.330658       -2.701058
 H          -4.691945      -20.076765       -2.557915
 H          -5.366893      -18.482687       -2.129882
 H          -7.638697      -19.510275        0.604053
 H          -7.157279      -18.194511       -0.517246
 H          -6.843263      -20.937527       -3.347051
 H          -6.487604      -19.424042       -4.218571
 H          -9.447671      -19.109638       -0.990922
 H          -8.731896      -20.753904       -1.240365
 H          -8.920914      -19.704048       -3.349691
 H          -8.222197      -18.240578       -2.726274
