20
 generated by VMD
 C         -20.339001      -57.317261      -16.796507
 N         -19.327915      -56.733253      -16.916252
 H         -22.637442      -59.563381      -17.452932
 H         -21.466351      -57.724075      -16.628933
 C         -22.487545      -60.356892      -16.768122
 C         -23.680050      -60.829407      -16.059999
 C         -21.097879      -61.102074      -16.593605
 C         -23.386068      -61.225037      -14.626589
 C         -21.113844      -62.257168      -15.577316
 C         -22.078754      -61.978828      -14.365718
 H         -23.963633      -61.742634      -16.587072
 H         -24.458525      -60.086025      -16.005533
 H         -20.883064      -61.613712      -17.564079
 H         -20.276339      -60.399338      -16.416241
 H         -24.294260      -61.726974      -14.226854
 H         -23.383753      -60.334179      -13.902007
 H         -20.027479      -62.354118      -15.282079
 H         -21.538574      -63.150665      -16.059822
 H         -22.382523      -63.027172      -14.067393
 H         -21.583803      -61.657578      -13.437592
