20
 generated by VMD
 C         -79.700691     -205.551117      -72.386665
 N         -80.108818     -206.616257      -72.399071
 H         -77.616371     -204.756638      -70.838867
 H         -79.068878     -204.651733      -72.535599
 C         -76.656281     -205.109573      -71.175789
 C         -75.525681     -204.189407      -71.263611
 C         -76.344353     -206.408798      -70.518471
 C         -74.657944     -204.027725      -70.110931
 C         -75.635696     -206.198181      -69.268997
 C         -74.357887     -205.394714      -69.275215
 H         -75.829430     -203.226929      -71.541405
 H         -74.869034     -204.513306      -72.100227
 H         -77.227692     -207.056870      -70.469856
 H         -75.592354     -207.036743      -71.147171
 H         -75.220711     -203.430176      -69.437141
 H         -73.636192     -203.699097      -70.304688
 H         -75.324104     -207.106018      -68.724266
 H         -76.473061     -205.779846      -68.582123
 H         -74.147415     -205.111862      -68.240433
 H         -73.461678     -205.923981      -69.687042
