20
 generated by VMD
 C         -70.110397     -181.390350      -62.807899
 N         -71.128082     -180.950958      -63.227318
 H         -67.536148     -181.780350      -60.521942
 H         -69.202713     -181.703751      -62.327576
 C         -66.849762     -180.919037      -60.803028
 C         -65.301132     -181.183731      -60.563499
 C         -67.355980     -179.474838      -60.573986
 C         -64.361122     -179.928528      -60.639404
 C         -66.306099     -178.503937      -60.996418
 C         -64.981285     -178.591675      -60.254288
 H         -64.862366     -181.915543      -61.185883
 H         -65.290573     -181.567474      -59.622543
 H         -68.406929     -179.285782      -61.094063
 H         -67.495918     -179.308533      -59.486164
 H         -63.911903     -179.953156      -61.697891
 H         -63.485783     -180.260056      -59.936073
 H         -66.624870     -177.529663      -60.701363
 H         -66.171455     -178.595764      -62.069176
 H         -64.157547     -177.786285      -60.260994
 H         -65.241539     -178.598557      -59.223911
