20
 generated by VMD
 C         -38.681244     -108.198624      -36.803085
 N         -37.878963     -108.842049      -37.387650
 H         -41.623562     -109.322578      -36.005745
 H         -39.248680     -107.491211      -36.207554
 C         -41.450134     -109.974709      -35.245827
 C         -40.647816     -111.142265      -35.389717
 C         -42.339504     -109.869026      -34.112267
 C         -40.302895     -111.884712      -34.064938
 C         -42.140587     -110.758453      -32.815472
 C         -41.616272     -112.097206      -33.323563
 H         -39.686806     -110.902924      -35.846409
 H         -41.132290     -111.869583      -36.108345
 H         -42.261780     -108.822075      -33.766571
 H         -43.398247     -109.930458      -34.418774
 H         -39.544014     -111.330940      -33.589172
 H         -39.857178     -112.937843      -34.196793
 H         -43.096031     -110.820587      -32.253716
 H         -41.338455     -110.237656      -32.176880
 H         -41.298847     -112.779648      -32.454575
 H         -42.215237     -112.580292      -34.032372
