20
 generated by VMD
 C         -57.859367     -164.758148      -56.497761
 N         -57.260929     -164.051651      -57.198322
 H         -59.988922     -165.119156      -54.407742
 H         -58.518734     -165.414291      -55.906235
 C         -60.985855     -164.945618      -54.640018
 C         -61.925243     -165.822327      -53.810959
 C         -61.430378     -164.142685      -55.965130
 C         -63.394012     -165.578369      -54.066124
 C         -62.883255     -163.893585      -55.801285
 C         -63.741478     -165.146469      -55.544746
 H         -61.731922     -165.660934      -52.688431
 H         -61.605511     -166.850998      -53.810925
 H         -60.861469     -163.279800      -56.026985
 H         -61.084385     -164.824814      -56.768105
 H         -63.778439     -164.794540      -53.451870
 H         -63.964733     -166.454483      -53.963474
 H         -63.341053     -163.314880      -56.504745
 H         -63.057674     -163.145355      -54.957130
 H         -64.883339     -164.799484      -55.554588
 H         -63.591900     -165.997269      -56.342785
