20
 generated by VMD
 C         -13.149382      -28.611387       -5.609382
 N         -12.730946      -27.595467       -5.447465
 H         -11.236486      -31.100723       -3.147274
 H         -11.119138      -29.526936       -4.159874
 C         -10.604344      -30.324673       -3.610479
 C          -9.799629      -31.009293       -4.772113
 C          -9.642274      -29.767080       -2.580399
 C          -8.655442      -30.166847       -5.393723
 C          -8.646378      -28.782013       -3.132459
 C          -7.818548      -29.460304       -4.204519
 H         -10.522690      -31.236721       -5.594646
 H          -9.379422      -31.914171       -4.332136
 H         -10.154162      -29.301714       -1.747912
 H          -9.006251      -30.593390       -2.170814
 H          -9.064214      -29.340311       -5.966667
 H          -8.044947      -30.857132       -5.958578
 H          -7.973593      -28.434160       -2.325672
 H          -9.185389      -27.934700       -3.616635
 H          -7.144193      -28.755262       -4.672785
 H          -7.170515      -30.207890       -3.665917
