20
 generated by VMD
 C          -2.522517       -8.695667       -0.463797
 N          -1.479567       -8.476804       -0.225718
 H          -3.180313       -9.621186        2.806514
 H          -1.896403      -10.634794        3.478102
 C          -2.971838      -10.692741        3.181526
 C          -3.270082      -11.649425        2.060968
 C          -3.741261      -10.931785        4.449644
 C          -3.314948      -13.120727        2.530915
 C          -3.683605      -12.410889        4.954682
 C          -4.179526      -13.300407        3.755084
 H          -2.621326      -11.477560        1.161407
 H          -4.298532      -11.460167        1.685061
 H          -3.455375      -10.304292        5.328743
 H          -4.834740      -10.657665        4.245384
 H          -2.255896      -13.456725        2.680568
 H          -3.757233      -13.746461        1.686853
 H          -4.318172      -12.550704        5.818400
 H          -2.708828      -12.777612        5.145136
 H          -4.347643      -14.321860        4.051345
 H          -5.204034      -12.986055        3.537893
