20
 generated by VMD
 C         -21.916702      -55.534664      -17.543577
 N         -20.901876      -55.711800      -18.187933
 H         -21.845087      -57.115780      -14.545761
 H         -22.944698      -55.601990      -17.298653
 C         -21.686604      -58.211342      -14.582243
 C         -21.499992      -58.842525      -13.223844
 C         -21.488947      -59.185169      -15.832446
 C         -20.958406      -60.319031      -13.242798
 C         -20.249119      -60.030094      -15.746246
 C         -19.964211      -60.621536      -14.301669
 H         -22.382448      -58.672642      -12.498595
 H         -20.641796      -58.311161      -12.769109
 H         -22.315668      -59.856365      -16.001427
 H         -21.416082      -58.520519      -16.656950
 H         -21.782633      -60.926052      -13.547935
 H         -20.666826      -60.635551      -12.279911
 H         -19.372782      -59.436298      -16.040974
 H         -20.421663      -60.898746      -16.351545
 H         -19.695238      -61.743347      -14.341638
 H         -19.028913      -60.159840      -13.937946
