20
 generated by VMD
 C         -59.809887     -169.583038      -55.556602
 N         -59.714653     -168.581741      -55.025921
 H         -63.449615     -170.328751      -56.484600
 H         -59.856762     -170.443649      -56.195072
 C         -63.253731     -169.292542      -56.747589
 C         -62.699833     -168.928604      -58.155903
 C         -63.454529     -168.337509      -55.694416
 C         -63.454708     -167.675140      -58.634594
 C         -64.093414     -167.055847      -56.284252
 C         -63.526638     -166.568436      -57.580715
 H         -63.125820     -169.752411      -58.960857
 H         -61.671761     -168.992096      -58.240028
 H         -64.336151     -168.701782      -54.972881
 H         -62.568279     -168.038712      -54.986065
 H         -64.397034     -168.066895      -58.969929
 H         -62.879604     -167.246902      -59.445358
 H         -64.075859     -166.305222      -55.461796
 H         -65.261536     -167.224991      -56.416595
 H         -64.170601     -165.836975      -58.139671
 H         -62.546577     -166.102463      -57.497070
