20
 generated by VMD
 C         -79.321671     -204.649033      -70.756439
 N         -80.331352     -205.175018      -70.737297
 H         -76.770531     -203.275711      -68.951256
 H         -78.377129     -204.116653      -70.948448
 C         -75.815117     -203.002167      -69.244965
 C         -75.663200     -202.048126      -70.385323
 C         -74.779495     -204.041275      -68.830170
 C         -74.236565     -201.520264      -70.420341
 C         -73.344040     -203.675644      -69.160332
 C         -73.169884     -202.598785      -70.268463
 H         -76.337273     -201.185364      -70.117691
 H         -75.976700     -202.521790      -71.310989
 H         -74.809814     -204.147339      -67.728119
 H         -75.046059     -204.912262      -69.526154
 H         -74.100700     -200.793533      -69.597282
 H         -74.052666     -201.014786      -71.360519
 H         -72.842644     -204.619965      -69.502655
 H         -72.752708     -203.212494      -68.230507
 H         -72.212547     -202.023239      -70.036194
 H         -73.129387     -203.200104      -71.259674
