20
 generated by VMD
 C         -19.407864      -60.774025      -17.640232
 N         -20.165358      -59.906120      -17.747505
 H         -22.577097      -60.183681      -15.951791
 H         -18.901581      -61.775906      -17.511385
 C         -23.026627      -61.118610      -16.118464
 C         -23.182119      -61.744816      -17.457548
 C         -23.740505      -61.832935      -15.059309
 C         -22.896769      -63.276844      -17.614044
 C         -23.125265      -63.236221      -14.994035
 C         -23.243511      -64.017197      -16.275085
 H         -22.531221      -61.215137      -18.199265
 H         -24.324076      -61.661709      -17.801027
 H         -23.663654      -61.377556      -14.084582
 H         -24.802982      -61.979992      -15.339276
 H         -21.941917      -63.633579      -17.960859
 H         -23.635437      -63.584335      -18.315109
 H         -23.565708      -63.792522      -14.157048
 H         -22.057434      -63.149155      -14.651294
 H         -22.794256      -65.024292      -16.308321
 H         -24.354145      -64.179878      -16.442955
