20
 generated by VMD
 C         -78.327187     -209.733200      -77.036652
 N         -78.745857     -208.841995      -77.679985
 H         -78.858894     -210.642166      -73.386497
 H         -77.885429     -210.517548      -76.546257
 C         -78.852623     -211.621872      -72.861443
 C         -77.622643     -211.808273      -71.965630
 C         -80.049370     -212.614883      -72.957855
 C         -78.078758     -212.217941      -70.570267
 C         -80.483078     -212.720230      -71.468712
 C         -79.252861     -213.241486      -70.650444
 H         -76.942230     -210.944656      -72.066315
 H         -76.978889     -212.553192      -72.398590
 H         -80.859909     -212.163513      -73.513710
 H         -79.657707     -213.614334      -73.401665
 H         -78.386574     -211.258469      -70.105576
 H         -77.333992     -212.614151      -69.898148
 H         -81.380058     -213.441574      -71.508995
 H         -80.842545     -211.846878      -71.158936
 H         -79.618279     -213.796173      -69.747192
 H         -78.810524     -214.031052      -71.203903
