20
 generated by VMD
 C         -68.098106     -185.847519      -67.007652
 N         -68.259056     -184.858322      -67.619331
 H         -69.106903     -188.190796      -64.821365
 H         -67.999542     -186.702271      -66.421028
 C         -69.451172     -187.855621      -63.867908
 C         -68.998268     -186.504837      -63.372105
 C         -70.601944     -188.737518      -63.245152
 C         -69.442444     -186.141235      -61.919292
 C         -70.845917     -188.256927      -61.835358
 C         -70.751289     -186.796173      -61.587273
 H         -69.474487     -185.781555      -64.085854
 H         -67.889397     -186.497253      -63.359215
 H         -71.496017     -188.398026      -63.683025
 H         -70.430183     -189.800079      -63.218769
 H         -69.359741     -185.096558      -61.822258
 H         -68.820526     -186.433746      -61.029686
 H         -70.204353     -188.794373      -61.150280
 H         -71.821114     -188.659424      -61.597870
 H         -71.522636     -186.116241      -62.087337
 H         -70.950829     -186.576050      -60.547764
