20
 generated by VMD
 C         -74.999290     -201.522293      -66.621597
 N         -75.190979     -201.793015      -65.488663
 H         -76.282829     -199.457169      -69.020493
 H         -74.764153     -201.229980      -67.620590
 C         -75.270905     -198.994659      -69.074623
 C         -75.013771     -197.770355      -68.187584
 C         -74.223206     -199.510712      -69.962395
 C         -73.466766     -197.743179      -68.009109
 C         -73.138039     -198.664978      -70.476669
 C         -72.668159     -197.635559      -69.335396
 H         -75.385612     -197.890289      -67.244507
 H         -75.385956     -196.884262      -68.692078
 H         -73.821594     -200.414413      -69.503479
 H         -74.721436     -200.080399      -70.836182
 H         -73.032555     -198.571503      -67.475235
 H         -73.132164     -196.973755      -67.296982
 H         -73.357269     -198.073135      -71.350311
 H         -72.377998     -199.325058      -70.754181
 H         -71.664268     -197.857605      -69.286682
 H         -72.791504     -196.516815      -69.654663
