20
 generated by VMD
 C         -22.101437      -67.276978      -16.483545
 N         -21.056116      -66.954910      -16.079233
 H         -23.987810      -65.174736      -18.094915
 H         -23.134754      -67.558434      -16.565130
 C         -24.486937      -66.059990      -18.405661
 C         -23.961302      -66.479340      -19.847416
 C         -25.931152      -66.197388      -18.278854
 C         -24.365866      -67.821190      -20.311911
 C         -26.252268      -67.642654      -18.538862
 C         -25.834976      -68.013939      -19.958378
 H         -22.904715      -66.628098      -19.771721
 H         -24.117437      -65.623360      -20.672066
 H         -26.088707      -65.933380      -17.218126
 H         -26.453508      -65.633316      -19.001266
 H         -23.792315      -68.666817      -19.773941
 H         -24.205511      -67.933754      -21.395735
 H         -27.388655      -67.842178      -18.386543
 H         -25.751410      -68.291046      -17.782106
 H         -26.309706      -68.950203      -20.305368
 H         -26.382547      -67.256744      -20.438778
