20
 generated by VMD
 C         -69.786217     -180.734131      -61.315735
 N         -69.125374     -180.580750      -62.243706
 H         -66.538231     -180.066422      -59.187351
 H         -70.500420     -180.805740      -60.555553
 C         -66.167580     -179.135193      -59.700340
 C         -65.678040     -179.361832      -61.020584
 C         -65.823135     -178.016647      -58.804661
 C         -65.117310     -178.072128      -61.797443
 C         -65.591232     -176.749115      -59.634251
 C         -64.678658     -176.902756      -60.841312
 H         -66.407967     -179.813614      -61.688656
 H         -64.761177     -179.858337      -60.856453
 H         -66.771675     -177.972748      -58.188499
 H         -65.036530     -178.355881      -58.138550
 H         -65.849510     -177.816879      -62.632767
 H         -64.344711     -178.314575      -62.537807
 H         -65.090370     -175.949448      -59.101803
 H         -66.593941     -176.378403      -59.992146
 H         -64.517647     -176.025391      -61.513374
 H         -63.718929     -177.406616      -60.484432
