20
 generated by VMD
 C         -47.328331     -138.912308      -45.662586
 N         -46.881580     -138.503174      -46.680332
 H         -50.768063     -138.182144      -44.688019
 H         -47.833851     -139.190674      -44.742271
 C         -51.615978     -138.737061      -45.084072
 C         -51.797215     -139.098175      -46.537018
 C         -52.842426     -138.425507      -44.352837
 C         -52.926762     -140.164764      -46.706856
 C         -54.091293     -139.352539      -44.615429
 C         -54.286633     -139.649902      -46.166702
 H         -50.911476     -139.573639      -46.908482
 H         -51.927967     -138.292572      -47.227402
 H         -52.569290     -138.453323      -43.243443
 H         -53.162960     -137.353210      -44.507111
 H         -52.492126     -141.078827      -46.344135
 H         -53.107834     -140.322372      -47.767982
 H         -54.915512     -139.025970      -44.005127
 H         -53.884117     -140.336197      -44.133739
 H         -55.129135     -140.290863      -46.355259
 H         -54.701881     -138.696930      -46.783634
