20
 generated by VMD
 C         -48.427601     -135.658859      -46.329102
 N         -47.355736     -135.581833      -45.994354
 H         -51.848671     -135.063538      -45.813797
 H         -49.480076     -135.728180      -46.597733
 C         -51.700283     -135.724045      -45.084480
 C         -52.356865     -137.024857      -45.504265
 C         -51.296925     -135.559692      -43.659397
 C         -51.473324     -138.186951      -45.011589
 C         -50.477489     -136.765793      -43.185539
 C         -51.202694     -138.019211      -43.538239
 H         -52.509262     -137.003693      -46.537601
 H         -53.394230     -137.020859      -45.038357
 H         -50.674480     -134.701035      -43.502602
 H         -52.089764     -135.418457      -42.959549
 H         -50.573700     -138.249374      -45.704777
 H         -51.986065     -139.150253      -45.170208
 H         -50.408794     -136.738098      -42.078259
 H         -49.385223     -136.773575      -43.628147
 H         -50.567677     -138.831467      -43.246265
 H         -52.305420     -137.983322      -42.872589
