20
 generated by VMD
 C         -38.330326     -111.055992      -36.344646
 N         -38.219654     -109.885963      -36.415005
 H         -40.330273     -114.023056      -35.128536
 H         -38.549122     -112.133095      -36.112411
 C         -41.073895     -113.423264      -35.532265
 C         -41.878433     -113.794540      -36.768326
 C         -41.701569     -112.209129      -34.743694
 C         -43.357330     -114.150490      -36.336647
 C         -43.014446     -112.638481      -34.156918
 C         -43.904781     -113.100296      -35.289848
 H         -41.497627     -114.632973      -37.356705
 H         -41.930885     -112.832878      -37.391155
 H         -40.981625     -111.946831      -33.904579
 H         -41.816708     -111.333870      -35.394634
 H         -43.381790     -115.267883      -35.984657
 H         -44.045303     -114.362885      -37.136459
 H         -43.372021     -111.770988      -33.638153
 H         -42.903122     -113.446236      -33.428062
 H         -44.885521     -113.425400      -34.956154
 H         -44.134289     -112.331215      -36.011784
