20
 generated by VMD
 C         -45.809055     -123.826843      -35.560261
 N         -46.404968     -124.782082      -35.459717
 H         -44.674309     -122.329277      -38.389843
 H         -45.416458     -122.827805      -35.832287
 C         -44.630672     -121.451851      -38.959694
 C         -43.312080     -121.446861      -39.697166
 C         -45.878429     -120.769165      -39.550968
 C         -43.442730     -121.342392      -41.209568
 C         -45.879108     -120.584244      -41.038284
 C         -44.494976     -120.322884      -41.696266
 H         -42.720589     -122.298088      -39.431690
 H         -42.531925     -120.651154      -39.324955
 H         -46.835724     -121.276314      -39.124638
 H         -45.716125     -119.748947      -39.123707
 H         -43.743656     -122.380325      -41.548527
 H         -42.520187     -121.274796      -41.745449
 H         -46.548374     -119.887032      -41.401512
 H         -46.209415     -121.550049      -41.352524
 H         -44.574924     -120.402138      -42.817307
 H         -44.192257     -119.281479      -41.339558
