20
 generated by VMD
 C         -78.665939     -210.168228      -76.470734
 N         -77.615974     -210.358734      -76.907494
 H         -79.618706     -212.093353      -74.654411
 H         -79.629097     -209.937164      -76.042580
 C         -79.578972     -212.317215      -73.630486
 C         -78.220306     -212.411804      -72.903374
 C         -80.776848     -213.085327      -73.149414
 C         -78.352654     -212.702911      -71.391426
 C         -80.834831     -213.466400      -71.665878
 C         -79.419418     -213.905731      -71.134514
 H         -77.606667     -211.542587      -73.088173
 H         -77.746086     -213.277740      -73.385559
 H         -81.715813     -212.501083      -73.353790
 H         -80.872986     -213.901794      -73.802818
 H         -78.736969     -211.760040      -71.002953
 H         -77.386108     -213.066467      -70.930389
 H         -81.326485     -214.521805      -71.737663
 H         -81.285934     -212.820053      -70.931137
 H         -79.450363     -214.238266      -70.067780
 H         -79.021111     -214.713287      -71.929672
