20
 generated by VMD
 C         -12.357237      -27.570135       -4.612997
 N         -13.122441      -28.123116       -5.188159
 H         -10.813891      -30.601759       -2.918311
 H         -11.105420      -29.081551       -3.596251
 C         -10.290490      -29.794930       -3.394847
 C          -9.623161      -30.418766       -4.562973
 C          -9.273076      -29.116524       -2.419003
 C          -8.678072      -29.532860       -5.269467
 C          -8.330728      -28.155893       -3.239544
 C          -7.686348      -28.822691       -4.373723
 H         -10.451233      -30.607050       -5.269484
 H          -9.241343      -31.407442       -4.352015
 H          -9.852882      -28.467119       -1.720311
 H          -8.625988      -29.791473       -1.884503
 H          -9.245799      -28.794910       -5.837332
 H          -8.115930      -30.021450       -6.091277
 H          -7.597914      -27.850470       -2.487697
 H          -8.938158      -27.303202       -3.478956
 H          -7.067564      -28.083998       -4.935377
 H          -6.919452      -29.549116       -4.122660
