20
 generated by VMD
 C         -13.934486      -45.503590       -5.649660
 N         -14.364597      -45.397358       -6.686116
 H         -15.088253      -44.180550       -9.206977
 H         -14.531668      -43.950626      -10.929311
 C         -15.351598      -44.227489      -10.249720
 C         -16.466108      -43.183125      -10.508581
 C         -15.842102      -45.637112      -10.599059
 C         -16.958771      -43.416306      -11.937565
 C         -16.212679      -45.859203      -12.063904
 C         -17.301590      -44.845226      -12.342278
 H         -16.051573      -42.169743      -10.405777
 H         -17.283192      -43.420055       -9.748764
 H         -15.094713      -46.392284      -10.349862
 H         -16.717226      -45.692657       -9.937996
 H         -16.212950      -43.083023      -12.657000
 H         -17.859060      -42.823353      -12.146473
 H         -16.648352      -46.829494      -12.104957
 H         -15.322086      -45.858326      -12.778047
 H         -17.668755      -44.812881      -13.332064
 H         -18.188557      -45.205906      -11.817199
