20
 generated by VMD
 C         -69.596275     -181.183151      -61.204075
 N         -69.300529     -180.246521      -61.796524
 H         -67.385361     -179.248505      -59.623367
 H         -69.820534     -182.016998      -60.615524
 C         -66.339592     -178.812271      -59.784775
 C         -65.585236     -179.026367      -61.052555
 C         -65.702599     -177.799362      -58.843498
 C         -65.123802     -177.714127      -61.742603
 C         -65.182640     -176.528061      -59.508301
 C         -64.571678     -176.726868      -60.828255
 H         -66.112419     -179.558090      -61.807426
 H         -64.610641     -179.424408      -60.885082
 H         -66.460106     -177.607681      -58.059357
 H         -64.878250     -178.338409      -58.310898
 H         -65.997734     -177.221710      -62.154881
 H         -64.493919     -177.846817      -62.641754
 H         -64.560745     -176.014328      -58.774086
 H         -65.918404     -175.781906      -59.709705
 H         -64.529289     -175.848831      -61.456127
 H         -63.591640     -176.994476      -60.690983
