20
 generated by VMD
 C         -67.933434     -179.416229      -58.706669
 N         -68.131378     -180.055878      -57.782166
 H         -66.556534     -176.595306      -59.439751
 H         -67.644142     -178.873917      -59.617580
 C         -65.873688     -175.971893      -59.804150
 C         -66.055252     -174.965454      -60.882401
 C         -64.405701     -176.436707      -59.645458
 C         -65.009750     -173.777985      -60.839813
 C         -63.524399     -175.099396      -59.430725
 C         -63.579994     -174.175079      -60.609200
 H         -67.126686     -174.498474      -60.877747
 H         -65.991325     -175.502472      -61.823929
 H         -64.356544     -177.019287      -58.752453
 H         -64.074059     -177.019318      -60.527100
 H         -65.442612     -172.924789      -60.123272
 H         -64.968193     -173.315781      -61.878716
 H         -62.435398     -175.331421      -59.192936
 H         -63.968109     -174.596497      -58.552525
 H         -63.000797     -173.248520      -60.426857
 H         -63.066307     -174.485809      -61.546955
