20
 generated by VMD
 C         -39.604694     -116.591080      -34.903297
 N         -39.418812     -115.562569      -34.438026
 H         -41.448715     -115.345871      -37.521294
 H         -39.644855     -117.584381      -35.283653
 C         -42.451996     -115.909492      -37.651642
 C         -43.097706     -115.850708      -39.041542
 C         -43.310452     -115.780655      -36.458855
 C         -44.473888     -116.401825      -39.166485
 C         -44.588612     -116.581245      -36.610249
 C         -45.321972     -116.190941      -37.914837
 H         -42.474941     -116.506760      -39.688553
 H         -42.923985     -114.807106      -39.351063
 H         -42.889248     -116.321785      -35.666000
 H         -43.597309     -114.793144      -36.227547
 H         -44.360786     -117.480553      -39.238644
 H         -45.158829     -116.120033      -39.999439
 H         -45.191669     -116.314964      -35.740917
 H         -44.433693     -117.699036      -36.631748
 H         -46.363094     -116.854103      -37.921158
 H         -45.670315     -115.039505      -37.924294
