20
 generated by VMD
 C         -59.383915     -168.762787      -55.842381
 N         -59.205879     -168.717102      -54.681587
 H         -62.515984     -169.799820      -55.936729
 H         -59.610256     -168.633118      -56.897110
 C         -62.911129     -168.879089      -56.440475
 C         -62.763031     -168.612640      -57.842503
 C         -63.163235     -167.732101      -55.606594
 C         -63.706631     -167.640488      -58.466419
 C         -64.036636     -166.588104      -56.128559
 C         -63.838032     -166.322067      -57.600708
 H         -62.821564     -169.576172      -58.438683
 H         -61.798637     -168.093689      -58.059711
 H         -63.472473     -167.990143      -54.442139
 H         -62.096508     -167.346329      -55.519806
 H         -64.692459     -168.040359      -58.507015
 H         -63.301159     -167.378418      -59.452759
 H         -63.763130     -165.667648      -55.632458
 H         -65.040840     -166.978973      -55.925838
 H         -64.658630     -165.698608      -57.970345
 H         -62.840279     -165.836716      -57.803608
