20
 generated by VMD
 C         -29.012032      -73.436668      -19.178896
 N         -29.623077      -74.301285      -18.665348
 H         -25.253719      -72.912987      -18.840414
 H         -28.509642      -72.578880      -19.845856
 C         -25.565416      -72.820450      -19.832491
 C         -24.878719      -73.878654      -20.750763
 C         -25.705448      -71.374855      -20.389524
 C         -25.509483      -73.863586      -22.163605
 C         -26.303289      -71.345100      -21.857456
 C         -25.570309      -72.486885      -22.737328
 H         -24.888037      -74.805222      -20.283964
 H         -23.857290      -73.396454      -20.879429
 H         -26.325861      -70.854614      -19.667252
 H         -24.662071      -70.931519      -20.367443
 H         -26.575026      -74.170967      -22.123787
 H         -24.940702      -74.432190      -22.917217
 H         -26.332882      -70.429916      -22.320644
 H         -27.271347      -71.725082      -21.814999
 H         -26.015770      -72.690506      -23.704231
 H         -24.544939      -72.007462      -22.956635
