20
 generated by VMD
 C         -57.967964     -165.358444      -56.375370
 N         -57.592358     -166.411896      -56.476280
 H         -60.569786     -164.961670      -54.111244
 H         -58.392403     -164.363831      -56.255222
 C         -61.487812     -165.075302      -54.694870
 C         -61.747391     -166.556290      -55.107677
 C         -62.037468     -164.021088      -55.623119
 C         -63.313164     -166.756897      -55.342419
 C         -63.572845     -164.345322      -55.821934
 C         -63.982006     -165.730972      -56.192631
 H         -61.615250     -167.220703      -54.343559
 H         -61.126369     -167.022766      -55.924332
 H         -62.006172     -163.032257      -55.075851
 H         -61.603622     -163.972198      -56.558620
 H         -63.822369     -166.770218      -54.425159
 H         -63.415691     -167.770477      -55.710121
 H         -64.050491     -163.393219      -56.407734
 H         -64.018257     -164.107742      -54.736397
 H         -65.040260     -165.775070      -55.950058
 H         -63.748852     -165.750015      -57.262051
