20
 generated by VMD
 C         -53.163284     -147.435837      -45.540833
 N         -54.296036     -147.478348      -45.256828
 H         -54.604164     -147.634796      -48.133419
 H         -52.156048     -147.467270      -45.982780
 C         -54.315994     -146.626205      -48.551010
 C         -53.256454     -146.535492      -49.536728
 C         -55.129662     -145.478912      -48.038425
 C         -53.491909     -145.311096      -50.409054
 C         -55.112492     -144.310486      -48.978603
 C         -53.848503     -144.064606      -49.727734
 H         -53.197525     -147.419037      -50.230350
 H         -52.265934     -146.427750      -49.136829
 H         -56.223915     -145.633820      -47.901733
 H         -54.712177     -145.259430      -47.061954
 H         -54.101315     -145.593781      -51.357838
 H         -52.591286     -144.970917      -50.931763
 H         -55.547779     -143.320114      -48.442413
 H         -55.843437     -144.535324      -49.721714
 H         -53.889282     -143.139862      -50.274666
 H         -53.132000     -143.897278      -48.917053
