20
 generated by VMD
 C         -49.986404     -127.617088      -39.142941
 N         -49.241081     -126.736237      -39.104462
 H         -47.053944     -126.212502      -41.300861
 H         -50.450802     -128.581955      -39.347965
 C         -46.206818     -125.521927      -41.167923
 C         -45.047241     -125.987427      -40.486835
 C         -46.611771     -124.099518      -41.163338
 C         -43.842228     -125.135742      -40.763618
 C         -45.338726     -123.253563      -41.465218
 C         -44.105728     -123.607582      -40.499290
 H         -44.833290     -127.047279      -40.885002
 H         -45.328621     -126.101013      -39.467594
 H         -47.215458     -123.863426      -42.053391
 H         -47.104904     -123.962387      -40.104076
 H         -43.469307     -125.252312      -41.778152
 H         -42.985168     -125.396980      -40.156616
 H         -45.677132     -122.102318      -41.399544
 H         -44.861252     -123.418808      -42.504986
 H         -43.253891     -123.102020      -40.906246
 H         -44.192841     -123.238487      -39.424641
