20
 generated by VMD
 C         -40.070633     -100.721046      -30.881226
 N         -40.403873      -99.900452      -31.598740
 H         -37.285767     -103.152519      -31.116699
 H         -39.608238     -101.281754      -30.077484
 C         -36.579601     -102.291824      -31.233181
 C         -36.502205     -101.534447      -32.487431
 C         -35.740887     -101.847466      -30.048059
 C         -36.222073     -100.012154      -32.416782
 C         -35.548546     -100.288651      -30.001369
 C         -35.314529      -99.530022      -31.269716
 H         -37.385571     -101.829300      -33.053493
 H         -35.680965     -102.040535      -33.065132
 H         -36.169853     -102.033463      -29.023787
 H         -34.736012     -102.248505      -30.182039
 H         -37.176670      -99.613274      -32.479061
 H         -35.773777      -99.674591      -33.373837
 H         -34.626625     -100.143166      -29.404070
 H         -36.350433      -99.811340      -29.471575
 H         -35.443726      -98.430374      -31.192146
 H         -34.212147      -99.686470      -31.511864
