20
 generated by VMD
 C         -49.998520     -143.634506      -44.455795
 N         -49.263157     -143.578476      -45.355583
 H         -52.060009     -142.035538      -45.635658
 H         -50.571220     -143.667587      -43.538788
 C         -52.731171     -141.708511      -46.447540
 C         -52.200680     -141.583542      -47.750015
 C         -54.161102     -141.213593      -46.239746
 C         -53.147186     -142.285522      -48.737820
 C         -55.122269     -141.842224      -47.269951
 C         -54.591682     -141.748627      -48.712105
 H         -51.234436     -142.070282      -47.770329
 H         -52.142159     -140.463043      -47.967999
 H         -54.338718     -141.570572      -45.230328
 H         -54.162861     -140.088409      -46.400257
 H         -53.293732     -143.265533      -48.562935
 H         -52.690742     -142.220886      -49.700714
 H         -56.105648     -141.488617      -47.070591
 H         -55.188965     -142.891556      -46.995071
 H         -55.144630     -142.271866      -49.441628
 H         -54.612556     -140.813248      -49.128017
