20
 generated by VMD
 C         -67.652077     -192.742508      -66.729843
 N         -68.799469     -192.754456      -67.028351
 H         -69.880333     -190.126633      -65.226425
 H         -66.566338     -192.616882      -66.505592
 C         -70.923767     -190.146866      -65.174286
 C         -71.564735     -190.895966      -66.249886
 C         -71.605812     -190.008392      -63.867115
 C         -72.496620     -192.023254      -65.712898
 C         -73.121384     -190.172958      -64.027100
 C         -73.475967     -191.467773      -64.695969
 H         -70.898842     -191.247437      -66.981827
 H         -72.177048     -190.106216      -66.881737
 H         -71.251030     -190.711929      -63.181667
 H         -71.407288     -188.952377      -63.491432
 H         -71.928238     -192.730209      -65.163101
 H         -72.990158     -192.455215      -66.604385
 H         -73.531631     -189.294632      -64.678543
 H         -73.736778     -190.056427      -63.150414
 H         -73.577583     -192.329803      -63.920300
 H         -74.386848     -191.344406      -65.281960
