20
 generated by VMD
 C         -62.733780     -174.605453      -54.661438
 N         -63.302998     -174.162903      -55.600788
 H         -63.294209     -172.911392      -58.002193
 H         -62.207775     -175.121338      -53.866924
 C         -63.688831     -172.001556      -58.382614
 C         -63.698517     -170.840424      -57.503605
 C         -64.324783     -172.094238      -59.742413
 C         -63.671665     -169.509644      -58.278137
 C         -64.302353     -170.709518      -60.471790
 C         -64.820389     -169.655228      -59.428768
 H         -62.850391     -170.908981      -56.864365
 H         -64.664619     -170.950455      -56.855888
 H         -63.739380     -172.878616      -60.256065
 H         -65.323524     -172.609268      -59.543888
 H         -62.724918     -169.372543      -58.726494
 H         -63.929554     -168.762894      -57.539715
 H         -64.875664     -170.693726      -61.418022
 H         -63.328232     -170.360199      -60.749359
 H         -64.994942     -168.720413      -59.895515
 H         -65.761528     -169.991608      -58.989796
