20
 generated by VMD
 C         -38.381355     -115.150925      -35.433414
 N         -39.198936     -115.283905      -34.649773
 H         -41.513397     -115.881592      -36.794884
 H         -37.609871     -114.951164      -36.216850
 C         -42.413902     -115.461136      -37.078300
 C         -42.936779     -115.284271      -38.536674
 C         -43.445145     -115.284966      -35.945992
 C         -44.175945     -116.153580      -38.744888
 C         -44.734257     -116.028435      -36.343475
 C         -45.274879     -115.679413      -37.720215
 H         -42.198727     -115.478333      -39.315720
 H         -43.379257     -114.295547      -38.678806
 H         -42.917599     -115.640297      -35.067875
 H         -43.721336     -114.216980      -35.962700
 H         -44.020920     -117.263992      -38.576851
 H         -44.409817     -116.061867      -39.778206
 H         -45.434750     -115.718788      -35.507389
 H         -44.466404     -117.107094      -36.212128
 H         -46.224232     -116.258881      -37.922859
 H         -45.602127     -114.675331      -37.968727
