20
 generated by VMD
 C         -50.139961     -145.027618      -44.630280
 N         -49.450451     -144.117722      -44.515602
 H         -52.719700     -142.766968      -45.778122
 H         -50.824726     -145.815796      -44.546143
 C         -53.263062     -142.515656      -46.685505
 C         -52.399902     -142.406418      -48.066750
 C         -54.557369     -141.811279      -46.624863
 C         -53.288731     -142.793121      -49.223431
 C         -55.381207     -142.027573      -47.893772
 C         -54.596699     -141.946609      -49.152164
 H         -51.588718     -143.182068      -47.964806
 H         -51.953602     -141.340927      -47.996544
 H         -55.205112     -142.012955      -45.761417
 H         -54.440674     -140.629364      -46.612885
 H         -53.336876     -143.882751      -49.221291
 H         -52.920040     -142.473221      -50.187267
 H         -56.198120     -141.282303      -47.891121
 H         -55.866039     -143.073914      -47.835762
 H         -55.347633     -142.351395      -49.883244
 H         -54.326172     -140.858673      -49.406895
