20
 generated by VMD
 C         -19.136154      -63.345734      -16.808947
 N         -20.207130      -62.916779      -17.031960
 H         -22.711824      -64.034126      -17.176222
 H         -18.189131      -63.887630      -16.453987
 C         -23.702051      -64.312645      -17.390266
 C         -24.313736      -64.120262      -18.734770
 C         -24.591078      -65.102745      -16.420944
 C         -24.708601      -65.461449      -19.349180
 C         -24.941273      -66.437668      -16.971226
 C         -25.492132      -66.305122      -18.428268
 H         -23.569801      -63.579102      -19.435207
 H         -25.313919      -63.662365      -18.533472
 H         -24.062487      -65.071503      -15.454573
 H         -25.519339      -64.600334      -16.187351
 H         -23.793924      -66.057510      -19.609510
 H         -25.267752      -65.304832      -20.305527
 H         -25.639767      -67.131340      -16.476700
 H         -23.968946      -66.925064      -17.095831
 H         -25.485731      -67.404099      -18.825483
 H         -26.561201      -66.130379      -18.391666
