20
 generated by VMD
 C         -23.224293      -68.551544      -16.625580
 N         -23.130989      -69.361832      -15.780253
 H         -23.896889      -66.063782      -18.815632
 H         -23.248854      -67.873848      -17.465324
 C         -24.442179      -66.989769      -19.160360
 C         -23.916950      -67.639778      -20.418285
 C         -25.937349      -67.014107      -19.103586
 C         -24.484983      -69.033974      -20.690361
 C         -26.553944      -68.434364      -19.237068
 C         -26.051455      -69.153648      -20.522360
 H         -22.914755      -67.760445      -20.344250
 H         -23.994593      -67.025124      -21.319122
 H         -26.236769      -66.583801      -18.103409
 H         -26.282312      -66.146797      -19.772913
 H         -23.938244      -69.684090      -19.990997
 H         -24.278404      -69.425880      -21.726984
 H         -27.636852      -68.508766      -19.085197
 H         -26.210333      -69.056000      -18.366253
 H         -26.415432      -70.150505      -20.328873
 H         -26.631147      -68.700912      -21.316818
