20
 generated by VMD
 C         -74.802200     -201.770447      -66.227577
 N         -73.978783     -201.025528      -65.828026
 H         -75.966476     -199.420807      -68.401787
 H         -75.658585     -202.352295      -66.427994
 C         -75.226448     -198.666275      -68.752762
 C         -74.984177     -197.316940      -68.315369
 C         -74.554932     -199.045090      -70.020088
 C         -73.484833     -196.890747      -68.167336
 C         -73.231522     -198.296616      -70.102173
 C         -72.604706     -197.948975      -68.762627
 H         -75.438553     -197.156967      -67.300598
 H         -75.396980     -196.696106      -68.987305
 H         -74.388763     -200.138901      -69.959679
 H         -75.160416     -198.871429      -70.876617
 H         -73.056877     -196.820572      -67.137001
 H         -73.230652     -195.911560      -68.578087
 H         -73.421341     -197.388611      -70.609619
 H         -72.555870     -198.997452      -70.632919
 H         -72.584930     -198.887009      -68.256775
 H         -71.602432     -197.498398      -68.781059
