20
 generated by VMD
 C         -12.374559      -31.912918       -8.826827
 N         -12.615039      -30.843204       -8.564287
 H         -10.586844      -35.057674       -7.508101
 H         -11.448720      -33.650513       -6.679785
 C         -11.200723      -34.754284       -6.617092
 C         -10.365716      -35.070457       -5.349184
 C         -12.388320      -35.704903       -6.785195
 C         -11.139746      -35.111946       -4.012201
 C         -13.201112      -35.677097       -5.497048
 C         -12.353665      -36.045757       -4.264996
 H          -9.559992      -34.300240       -5.291619
 H          -9.895032      -36.042683       -5.488602
 H         -13.054928      -35.368324       -7.591986
 H         -12.080853      -36.763634       -6.965485
 H         -11.449113      -34.093979       -3.727089
 H         -10.575919      -35.668377       -3.218181
 H         -13.990748      -36.534737       -5.619982
 H         -13.717704      -34.758575       -5.359141
 H         -13.000682      -36.111301       -3.425945
 H         -11.944532      -37.051304       -4.357571
