20
 generated by VMD
 C         -43.238796     -121.219261      -35.705727
 N         -43.347675     -120.488823      -34.810745
 H         -44.649281     -122.115631      -39.084381
 H         -43.187557     -121.763046      -36.686325
 C         -44.589958     -121.057831      -39.165909
 C         -43.317802     -120.410591      -39.792843
 C         -45.739342     -120.251740      -38.691563
 C         -43.547157     -119.097343      -40.469376
 C         -45.861774     -118.892334      -39.475040
 C         -44.484062     -118.295395      -39.561520
 H         -42.832420     -121.026382      -40.556301
 H         -42.533634     -120.390434      -38.996208
 H         -46.612068     -120.769608      -38.991352
 H         -45.810062     -119.943901      -37.638508
 H         -43.990005     -119.356323      -41.405807
 H         -42.640118     -118.529160      -40.544392
 H         -46.316837     -118.191422      -38.830051
 H         -46.414482     -119.020645      -40.421768
 H         -44.537994     -117.252617      -40.008919
 H         -43.887516     -118.062660      -38.600414
