20
 generated by VMD
 C         -27.474014      -84.598991      -26.410740
 N         -27.786446      -85.658684      -26.849199
 H         -31.326447      -84.824989      -25.944708
 H         -27.228926      -83.664360      -26.082520
 C         -31.934725      -85.670441      -25.771976
 C         -32.415722      -85.939430      -24.409103
 C         -32.217602      -86.586235      -26.929605
 C         -33.615982      -86.994476      -24.261766
 C         -33.522678      -87.345909      -26.629986
 C         -33.429050      -88.115005      -25.281456
 H         -32.687836      -84.989494      -23.974098
 H         -31.627504      -86.414635      -23.776520
 H         -32.326794      -86.036652      -27.886408
 H         -31.450142      -87.366287      -27.002100
 H         -34.448582      -86.404366      -24.558401
 H         -33.596413      -87.325874      -23.160154
 H         -33.712116      -88.128189      -27.470049
 H         -34.258087      -86.561089      -26.705257
 H         -34.271931      -88.801270      -25.144737
 H         -32.448826      -88.742424      -25.064344
