20
 generated by VMD
 C         -79.412231     -208.970169      -76.659386
 N         -79.030617     -210.028488      -76.443794
 H         -77.998810     -209.408554      -73.063309
 H         -79.747810     -208.066330      -76.978554
 C         -77.966011     -210.346588      -72.602043
 C         -77.136749     -210.656708      -71.437149
 C         -79.027924     -211.195282      -72.927216
 C         -77.773697     -211.523590      -70.359215
 C         -79.871567     -211.736465      -71.737976
 C         -78.877235     -212.453339      -70.749214
 H         -76.751175     -209.682983      -71.107224
 H         -76.213676     -211.247009      -71.801231
 H         -79.779480     -210.584198      -73.597313
 H         -78.662216     -212.033142      -73.540886
 H         -78.223778     -210.795715      -69.668114
 H         -77.039101     -212.040146      -69.722519
 H         -80.717339     -212.498871      -72.062927
 H         -80.522591     -211.026031      -71.176239
 H         -79.505318     -212.528976      -69.868515
 H         -78.473511     -213.444870      -70.975243
