20
 generated by VMD
 C         -21.406584      -52.405060      -11.394652
 N         -21.465103      -52.926701      -10.350134
 H         -19.935244      -50.741623      -13.481688
 H         -21.542351      -52.039150      -12.327550
 C         -18.898682      -50.969574      -13.416246
 C         -18.256435      -51.866501      -14.435403
 C         -18.172958      -50.616642      -12.085243
 C         -16.731222      -52.029049      -14.372666
 C         -16.685167      -50.480556      -12.373018
 C         -16.193264      -51.806686      -12.984129
 H         -18.608002      -51.682369      -15.461075
 H         -18.670176      -52.849266      -14.154686
 H         -18.682022      -49.767944      -11.727219
 H         -18.228281      -51.449173      -11.356996
 H         -16.268444      -51.262676      -14.990147
 H         -16.570557      -52.996647      -14.817781
 H         -16.132162      -50.419010      -11.430600
 H         -16.435457      -49.617260      -13.017823
 H         -15.091666      -51.861431      -12.912603
 H         -16.587509      -52.662685      -12.403904
