20
 generated by VMD
 C         -37.973232     -109.740517      -36.444145
 N         -37.436340     -108.866295      -35.885670
 H         -40.415646     -112.515579      -36.914246
 H         -38.591808     -110.486542      -36.812386
 C         -41.209507     -112.583710      -36.159439
 C         -42.408150     -113.530762      -36.460033
 C         -41.757519     -111.440613      -35.283680
 C         -43.036392     -114.063560      -35.178043
 C         -42.236614     -111.988960      -33.973148
 C         -43.457081     -112.926430      -34.280209
 H         -42.116570     -114.330208      -37.209183
 H         -43.226048     -112.951187      -36.897976
 H         -41.072197     -110.549652      -35.145832
 H         -42.638424     -111.064362      -35.959774
 H         -42.301510     -114.590263      -34.624584
 H         -43.783081     -114.933624      -35.365166
 H         -42.641052     -111.166512      -33.389465
 H         -41.431812     -112.480347      -33.458988
 H         -43.972778     -113.362976      -33.400803
 H         -44.263821     -112.378258      -34.904354
