20
 generated by VMD
 C         -19.588570      -58.300812      -17.157946
 N         -19.250271      -58.733959      -18.211290
 H         -22.853844      -59.664021      -16.635870
 H         -19.912481      -57.769753      -16.260643
 C         -22.846195      -60.689404      -16.174271
 C         -23.766426      -61.549999      -17.039509
 C         -22.431732      -61.165436      -14.838265
 C         -23.360552      -63.052708      -16.857407
 C         -22.034199      -62.649052      -14.878719
 C         -23.136627      -63.504070      -15.416504
 H         -23.733192      -61.300011      -18.150936
 H         -24.899122      -61.318714      -16.713020
 H         -21.513611      -60.631794      -14.626287
 H         -23.277624      -60.994843      -14.171708
 H         -22.456543      -63.219196      -17.419203
 H         -24.052843      -63.705681      -17.364378
 H         -21.780706      -62.947231      -13.813290
 H         -21.216436      -62.706161      -15.635036
 H         -22.907721      -64.584190      -15.320126
 H         -24.015657      -63.347729      -14.891644
