20
 generated by VMD
 C          -1.199000      -13.126716        0.999030
 N          -0.513368      -12.975811        0.143511
 H          -4.372693      -12.990516        1.555595
 H          -5.707435      -13.372190        0.616623
 C          -5.093576      -13.833058        1.383334
 C          -5.898336      -14.228985        2.614873
 C          -4.356397      -14.952786        0.713674
 C          -6.878446      -15.361296        2.249560
 C          -5.284655      -16.151691        0.405443
 C          -6.093177      -16.554104        1.636138
 H          -6.441896      -13.400942        3.052215
 H          -5.198019      -14.597687        3.341008
 H          -3.967311      -14.645727       -0.215152
 H          -3.531234      -15.288715        1.292476
 H          -7.681641      -15.057948        1.539239
 H          -7.381745      -15.770005        3.147626
 H          -4.725518      -16.997747       -0.012811
 H          -6.017216      -15.787414       -0.378855
 H          -6.790691      -17.348555        1.453563
 H          -5.498719      -16.936975        2.443647
