20
 generated by VMD
 C         -29.868071      -79.317200      -26.126682
 N         -30.821613      -78.654762      -25.939516
 H         -29.028502      -82.669548      -25.809050
 H         -29.036190      -79.880089      -25.920509
 C         -29.054043      -82.938034      -24.716511
 C         -28.393217      -82.056465      -23.742910
 C         -29.783447      -84.041733      -24.050367
 C         -29.388094      -81.401077      -22.837582
 C         -30.977282      -83.408714      -23.290258
 C         -30.517031      -82.402367      -22.137712
 H         -27.776886      -81.213669      -24.248573
 H         -27.611885      -82.652184      -23.236174
 H         -30.204142      -84.754677      -24.776510
 H         -29.094946      -84.650032      -23.431984
 H         -29.911161      -80.713684      -23.432186
 H         -28.744173      -80.761993      -22.056341
 H         -31.550314      -84.180344      -22.723970
 H         -31.630083      -82.888962      -23.966391
 H         -31.194851      -81.734840      -21.591864
 H         -30.092741      -82.986267      -21.346849
