20
 generated by VMD
 C          -1.380605      -13.313355        0.765195
 N          -0.446996      -13.589992        0.220938
 H          -4.271414      -13.909191        2.112449
 H          -5.127219      -13.736558        0.522824
 C          -5.007760      -14.398166        1.447749
 C          -6.293927      -14.568307        2.285388
 C          -4.328177      -15.756278        1.084017
 C          -7.243755      -15.529058        1.593583
 C          -5.324328      -16.618984        0.311309
 C          -6.593157      -16.823664        1.124319
 H          -6.878422      -13.632840        2.486307
 H          -6.071198      -14.983585        3.259710
 H          -3.508487      -15.588883        0.428874
 H          -3.853154      -16.225481        1.896156
 H          -7.640313      -14.942585        0.753001
 H          -8.117766      -15.771343        2.225816
 H          -4.952965      -17.565466       -0.104815
 H          -5.632788      -16.052732       -0.586882
 H          -7.307539      -17.442804        0.554246
 H          -6.340645      -17.455280        2.028596
