20
 generated by VMD
 C         -20.359982      -57.301445      -16.802980
 N         -19.339161      -56.713608      -16.890352
 H         -22.704981      -59.667198      -17.594982
 H         -21.208061      -57.770111      -16.566912
 C         -22.455444      -60.370010      -16.760180
 C         -23.709166      -60.833614      -16.052593
 C         -21.106062      -61.143040      -16.605314
 C         -23.362598      -61.159599      -14.599453
 C         -21.098001      -62.207703      -15.571635
 C         -22.062340      -61.986179      -14.347845
 H         -24.168970      -61.648964      -16.635418
 H         -24.434792      -59.972843      -15.948354
 H         -20.971901      -61.619675      -17.558073
 H         -20.289890      -60.411850      -16.498535
 H         -24.203642      -61.747890      -14.243106
 H         -23.316406      -60.293652      -13.987527
 H         -20.071861      -62.379250      -15.360300
 H         -21.362576      -63.186615      -15.999139
 H         -22.449509      -62.991402      -14.285739
 H         -21.490541      -61.631893      -13.464535
