20
 generated by VMD
 C         -68.414940     -185.243896      -67.190872
 N         -67.654480     -186.100342      -66.955818
 H         -69.931396     -185.196259      -64.500183
 H         -69.057518     -184.435608      -67.349113
 C         -69.721252     -185.318481      -63.483067
 C         -70.806679     -185.088547      -62.523174
 C         -68.465874     -186.095474      -63.215229
 C         -70.393341     -185.381531      -61.130428
 C         -68.243652     -186.535294      -61.702354
 C         -69.554390     -186.630936      -60.940720
 H         -71.629120     -185.767792      -62.802502
 H         -71.205154     -184.091080      -62.790665
 H         -68.235695     -186.887543      -63.809410
 H         -67.647324     -185.404861      -63.427235
 H         -71.369041     -185.489899      -60.606865
 H         -69.866974     -184.456223      -60.733757
 H         -67.688354     -185.750824      -61.179829
 H         -67.566292     -187.332031      -61.721634
 H         -70.043274     -187.542236      -61.269524
 H         -69.558365     -186.961182      -59.929333
