20
 generated by VMD
 C         -40.630100     -104.173531      -36.727924
 N         -39.856964     -104.993340      -36.505165
 H         -40.442623     -106.895203      -34.406559
 H         -41.266613     -103.283821      -36.670437
 C         -39.619221     -107.398445      -33.891838
 C         -38.487114     -106.622993      -33.336452
 C         -40.044136     -108.763992      -33.464695
 C         -38.415054     -106.877823      -31.824333
 C         -39.711739     -109.108299      -31.987118
 C         -38.483356     -108.442406      -31.541739
 H         -38.645382     -105.518417      -33.571442
 H         -37.479889     -106.795464      -33.724918
 H         -41.196880     -108.858101      -33.517918
 H         -39.661587     -109.635811      -33.973156
 H         -39.212898     -106.320091      -31.367502
 H         -37.419102     -106.549164      -31.459700
 H         -39.483284     -110.260269      -31.836996
 H         -40.592628     -108.960655      -31.284655
 H         -38.427673     -108.781677      -30.454540
 H         -37.692547     -109.030907      -32.033310
