20
 generated by VMD
 C         -67.975899     -185.874176      -67.006241
 N         -68.409050     -185.031113      -67.697258
 H         -68.865540     -188.335419      -64.651543
 H         -67.551178     -186.674133      -66.390869
 C         -69.376823     -187.890045      -63.847092
 C         -69.022194     -186.583862      -63.295250
 C         -70.639915     -188.522537      -63.421188
 C         -69.430931     -186.305801      -61.855785
 C         -70.887070     -188.312744      -61.879124
 C         -70.895050     -186.826370      -61.574104
 H         -69.547638     -185.840698      -63.902702
 H         -67.935150     -186.552704      -63.322414
 H         -71.480705     -188.141861      -63.983532
 H         -70.483253     -189.583588      -63.490162
 H         -69.242065     -185.270218      -61.669975
 H         -68.725204     -186.758026      -61.069420
 H         -70.117630     -188.752243      -61.310463
 H         -71.734589     -188.900528      -61.595425
 H         -71.459236     -186.050964      -62.165916
 H         -71.270599     -186.672638      -60.545704
