20
 generated by VMD
 C         -39.804714     -100.964508      -31.403126
 N         -40.552059     -100.133057      -31.217312
 H         -37.458584     -103.417290      -31.503824
 H         -39.268623     -101.845024      -31.801868
 C         -36.900497     -102.454391      -31.518648
 C         -36.270794     -101.878654      -32.770439
 C         -36.471237     -102.013817      -30.118130
 C         -35.852306     -100.367432      -32.578159
 C         -36.294716     -100.435776      -30.110420
 C         -35.161285     -100.194069      -31.138197
 H         -36.949074     -102.063774      -33.608650
 H         -35.400986     -102.533257      -32.784573
 H         -37.103550     -102.477104      -29.369661
 H         -35.484528     -102.489876      -29.873800
 H         -36.700680      -99.774002      -32.609768
 H         -35.128029     -100.148453      -33.410835
 H         -35.842793     -100.197525      -29.058920
 H         -37.207336      -99.930725      -30.297455
 H         -34.748787      -99.211617      -31.027756
 H         -34.387665     -101.001060      -30.959749
