20
 generated by VMD
 C         -68.280838     -185.325760      -67.596237
 N         -67.627220     -185.328568      -66.655045
 H         -69.383392     -186.698898      -64.808838
 H         -68.928703     -185.404724      -68.510239
 C         -69.715073     -186.719162      -63.810421
 C         -70.355522     -185.544983      -63.266689
 C         -69.600761     -187.977234      -63.001526
 C         -70.088928     -185.272690      -61.779808
 C         -69.060341     -187.584290      -61.594257
 C         -69.944695     -186.481400      -60.864288
 H         -71.330475     -185.417618      -63.602444
 H         -69.891724     -184.773071      -63.884689
 H         -70.510399     -188.538345      -62.989254
 H         -69.012985     -188.814835      -63.441040
 H         -70.961212     -184.737183      -61.472385
 H         -69.313461     -184.471100      -61.578773
 H         -68.030487     -187.200821      -61.574703
 H         -69.093826     -188.492783      -61.033371
 H         -70.814110     -186.947220      -60.712708
 H         -69.531914     -186.120148      -59.945980
