20
 generated by VMD
 C         -35.280029      -97.676064      -25.568880
 N         -35.508312      -97.582268      -26.705626
 H         -35.740467      -94.572746      -27.827127
 H         -34.874668      -97.701401      -24.539886
 C         -35.378059      -94.618195      -28.860620
 C         -35.905434      -95.619797      -29.922598
 C         -33.974449      -94.094170      -29.012468
 C         -35.643208      -94.912331      -31.261309
 C         -33.794151      -93.434441      -30.413467
 C         -34.250568      -94.436707      -31.446239
 H         -36.951706      -95.864403      -29.664518
 H         -35.280060      -96.547089      -29.769459
 H         -33.632072      -93.320366      -28.292713
 H         -33.244061      -94.889404      -28.934685
 H         -36.472450      -94.264374      -31.521257
 H         -35.672497      -95.755859      -31.968956
 H         -32.703430      -93.216881      -30.438795
 H         -34.271988      -92.500664      -30.547682
 H         -34.076275      -94.114288      -32.461044
 H         -33.668758      -95.473495      -31.480042
