20
 generated by VMD
 C         -22.274467      -52.207024      -11.541889
 N         -22.012920      -52.797455      -10.481678
 H         -19.545782      -52.991562      -14.323890
 H         -22.588068      -51.787945      -12.338280
 C         -18.901197      -52.298912      -13.903868
 C         -17.903263      -51.515881      -14.795334
 C         -18.529747      -52.359024      -12.498016
 C         -16.479534      -52.113266      -14.510115
 C         -17.223808      -51.669079      -12.200369
 C         -16.098167      -52.273216      -13.026301
 H         -17.907402      -50.455776      -14.621910
 H         -18.154266      -51.720959      -15.872044
 H         -19.281380      -51.911934      -11.843373
 H         -18.440094      -53.388332      -12.261127
 H         -15.739312      -51.507248      -15.079736
 H         -16.445539      -53.124645      -14.997679
 H         -17.089306      -51.683121      -11.146174
 H         -17.275528      -50.542683      -12.493636
 H         -15.117681      -51.781250      -12.818255
 H         -15.974057      -53.328602      -12.703408
