20
 generated by VMD
 C         -69.831848     -196.737213      -65.483391
 N         -68.695435     -196.553818      -65.460068
 H         -71.857674     -194.103928      -64.961273
 H         -70.934860     -196.750107      -65.482544
 C         -72.340767     -193.841660      -65.887726
 C         -72.342552     -192.447845      -66.447182
 C         -72.879669     -194.846680      -66.829819
 C         -73.786644     -192.073212      -66.815315
 C         -74.348007     -194.458969      -67.358467
 C         -74.334854     -193.005524      -67.908081
 H         -71.603607     -192.406830      -67.165398
 H         -71.962273     -191.696640      -65.743065
 H         -72.208542     -195.025513      -67.692047
 H         -72.885132     -195.907776      -66.440269
 H         -73.834000     -191.003967      -67.088783
 H         -74.472603     -192.167053      -65.979416
 H         -75.082298     -194.513748      -66.578308
 H         -74.707222     -195.125565      -68.199867
 H         -73.573914     -192.992157      -68.832474
 H         -75.250763     -192.776398      -68.300476
