20
 generated by VMD
 C         -41.530014     -102.537086      -35.865356
 N         -41.438404     -103.676056      -35.685326
 H         -39.098282     -104.827049      -33.851234
 H         -41.820274     -101.463463      -36.013107
 C         -38.532570     -105.244194      -33.118961
 C         -37.174389     -104.786148      -32.831024
 C         -39.098244     -106.372543      -32.336224
 C         -36.651428     -104.993134      -31.418755
 C         -38.263779     -106.682877      -31.024220
 C         -36.789185     -106.451866      -31.012396
 H         -37.000790     -103.707169      -32.884174
 H         -36.456570     -105.194153      -33.481716
 H         -40.152439     -106.221092      -32.023640
 H         -39.063496     -107.351959      -32.924938
 H         -37.124348     -104.336166      -30.626682
 H         -35.606140     -104.679955      -31.611202
 H         -38.499989     -107.758606      -30.703726
 H         -38.677174     -106.050644      -30.262697
 H         -36.243717     -106.702850      -30.040491
 H         -36.282612     -106.959099      -31.799534
