20
 generated by VMD
 C         -37.966217     -109.744362      -36.449131
 N         -37.438160     -108.864944      -35.885212
 H         -40.398220     -112.554939      -36.881195
 H         -38.656418     -110.522850      -36.761009
 C         -41.205791     -112.593712      -36.155205
 C         -42.416637     -113.550644      -36.470909
 C         -41.737526     -111.452057      -35.292580
 C         -43.040596     -114.079002      -35.184662
 C         -42.245102     -111.997826      -33.970490
 C         -43.468376     -112.910042      -34.286209
 H         -42.152790     -114.300674      -37.226025
 H         -43.149685     -112.965202      -36.986988
 H         -41.174664     -110.565216      -35.109818
 H         -42.667244     -111.075584      -35.809944
 H         -42.303078     -114.565834      -34.623699
 H         -43.774837     -114.819206      -35.386261
 H         -42.710419     -111.229149      -33.419235
 H         -41.401653     -112.422165      -33.522644
 H         -44.018127     -113.381851      -33.345245
 H         -44.210682     -112.346298      -34.862881
