20
 generated by VMD
 C          -7.070448      -23.140039        2.609412
 N          -6.060341      -22.656590        2.780198
 H          -6.312914      -20.923355       -0.166092
 H          -7.890026      -21.644426       -0.588595
 C          -6.989746      -21.150711       -1.036827
 C          -6.295840      -22.020542       -2.057715
 C          -7.249437      -19.781967       -1.635350
 C          -7.066155      -22.140848       -3.361595
 C          -8.080073      -19.854378       -2.935123
 C          -7.380126      -20.745182       -3.973706
 H          -6.088025      -22.988392       -1.688465
 H          -5.211719      -21.691406       -2.169987
 H          -7.874506      -19.384502       -0.846803
 H          -6.311700      -19.280128       -1.824658
 H          -8.006141      -22.659897       -3.135930
 H          -6.446585      -22.659975       -4.116746
 H          -7.985138      -18.781610       -3.251438
 H          -9.123614      -20.234749       -2.794152
 H          -7.994831      -20.794657       -4.894028
 H          -6.373530      -20.368261       -4.279929
