20
 generated by VMD
 C         -72.436928     -199.341553      -65.144684
 N         -71.318260     -199.325363      -64.867538
 H         -71.489471     -196.273361      -66.843887
 H         -73.417633     -199.065033      -65.487183
 C         -72.325890     -195.805557      -67.377419
 C         -72.808586     -194.485855      -67.034210
 C         -72.791290     -196.464630      -68.661377
 C         -73.936661     -193.972122      -68.061684
 C         -74.359894     -196.235596      -69.056610
 C         -74.991722     -195.122192      -68.251564
 H         -72.088036     -193.706131      -67.183441
 H         -73.187935     -194.586044      -65.890144
 H         -72.260582     -196.002869      -69.438614
 H         -72.491875     -197.458603      -68.633850
 H         -73.442116     -193.591537      -69.032097
 H         -74.464371     -193.195587      -67.538834
 H         -74.874023     -197.184113      -68.964172
 H         -74.371712     -195.973831      -70.153748
 H         -75.717590     -194.608490      -68.843475
 H         -75.311966     -195.614807      -67.208450
