20
 generated by VMD
 C         -70.460350     -196.646255      -65.519882
 N         -69.436661     -196.795349      -66.041222
 H         -73.515518     -195.743484      -65.038620
 H         -71.476990     -196.620499      -65.150597
 C         -73.473557     -195.164032      -65.971992
 C         -73.010078     -193.746918      -65.943718
 C         -74.559143     -195.560196      -67.043404
 C         -72.385941     -193.526062      -67.376183
 C         -74.070389     -195.077988      -68.307335
 C         -73.546829     -193.614716      -68.354744
 H         -72.357185     -193.586380      -65.166214
 H         -73.829453     -192.982346      -65.677483
 H         -74.680786     -196.677231      -66.904121
 H         -75.389732     -194.987350      -66.619316
 H         -71.565025     -194.254608      -67.550728
 H         -71.930092     -192.523071      -67.470741
 H         -74.912003     -195.252838      -69.037300
 H         -73.257957     -195.664963      -68.676620
 H         -73.140800     -193.360153      -69.435257
 H         -74.217552     -192.887405      -68.101021
