20
 generated by VMD
 C         -61.291248     -154.807785      -53.782013
 N         -61.661217     -154.966202      -52.646332
 H         -57.759701     -155.274963      -52.336960
 H         -60.825687     -154.647888      -54.738552
 C         -57.130466     -154.587067      -51.785583
 C         -57.410568     -154.145859      -50.399189
 C         -55.849586     -154.140289      -52.428646
 C         -56.129879     -154.611328      -49.574306
 C         -54.670223     -154.550385      -51.638069
 C         -54.811749     -154.187622      -50.158974
 H         -58.271214     -154.590515      -49.845676
 H         -57.621731     -153.056717      -50.473953
 H         -55.854237     -154.605927      -53.389854
 H         -55.877266     -153.006058      -52.494682
 H         -56.249985     -155.780533      -49.517086
 H         -56.054707     -154.149094      -48.534763
 H         -53.848110     -153.945480      -51.924992
 H         -54.487034     -155.680466      -51.876053
 H         -54.044937     -154.500565      -49.452255
 H         -54.704391     -153.122894      -50.076778
