20
 generated by VMD
 C          -5.780613      -21.692265        1.799093
 N          -6.536696      -22.505890        1.892522
 H          -5.258346      -19.073675       -0.667048
 H          -6.483403      -20.351915       -0.116158
 C          -6.081964      -19.779528       -0.947426
 C          -5.566122      -20.993189       -1.825589
 C          -7.161021      -18.995411       -1.682596
 C          -6.800540      -21.832180       -2.259332
 C          -8.366926      -19.853245       -2.062550
 C          -7.953134      -21.059116       -2.884850
 H          -4.694207      -21.524284       -1.312616
 H          -5.105392      -20.633953       -2.747393
 H          -7.496164      -18.139919       -0.970402
 H          -6.640466      -18.439085       -2.525416
 H          -7.200884      -22.399319       -1.378377
 H          -6.436758      -22.555979       -3.001470
 H          -9.033489      -19.288559       -2.692441
 H          -8.913954      -20.154684       -1.144401
 H          -8.836388      -21.753029       -3.021251
 H          -7.713731      -20.751610       -3.944954
