20
 generated by VMD
 C         -59.170254     -168.295120      -55.221550
 N         -58.218910     -168.892303      -54.848141
 H         -62.650120     -169.309357      -55.897060
 H         -60.072605     -167.854462      -55.629154
 C         -62.630558     -168.288361      -56.375122
 C         -62.709995     -168.235565      -57.817574
 C         -62.824986     -167.028870      -55.626900
 C         -64.073151     -167.607147      -58.185352
 C         -64.150650     -166.374741      -56.084141
 C         -64.196541     -166.206268      -57.585194
 H         -62.626530     -169.226974      -58.225159
 H         -61.789692     -167.597015      -58.284645
 H         -62.874378     -167.087936      -54.538040
 H         -62.084351     -166.249954      -55.877033
 H         -64.915169     -168.259247      -57.887012
 H         -64.031662     -167.386108      -59.258583
 H         -64.254997     -165.342957      -55.642109
 H         -64.871323     -167.027679      -55.654007
 H         -65.258171     -166.022446      -57.762848
 H         -63.525475     -165.496979      -57.995655
