20
 generated by VMD
 C         -38.019279     -109.786041      -36.349072
 N         -37.426491     -108.879051      -35.958355
 H         -40.384960     -112.843178      -36.560925
 H         -38.347328     -110.586060      -36.916718
 C         -41.378414     -112.648491      -36.175510
 C         -42.368038     -113.714180      -36.502960
 C         -41.616638     -111.551888      -35.290741
 C         -43.154690     -114.067459      -35.312298
 C         -42.347660     -111.994949      -34.012074
 C         -43.517433     -112.963432      -34.304661
 H         -41.835815     -114.511116      -36.981644
 H         -42.979607     -113.389191      -37.404984
 H         -40.723328     -111.146729      -34.782539
 H         -42.088242     -110.644402      -35.636654
 H         -42.485886     -114.725288      -34.650631
 H         -44.078518     -114.545296      -35.675072
 H         -42.713345     -111.200294      -33.294327
 H         -41.421955     -112.512047      -33.531681
 H         -43.866535     -113.451233      -33.435448
 H         -44.320114     -112.334442      -34.701385
