20
 generated by VMD
 C         -60.337685     -170.496719      -55.147907
 N         -59.215569     -170.708710      -55.354866
 H         -63.393051     -170.705841      -56.574406
 H         -61.369415     -170.221695      -54.966991
 C         -63.295624     -169.620987      -56.799549
 C         -62.311481     -168.875137      -57.747974
 C         -64.533623     -168.844406      -56.344547
 C         -63.091553     -167.918640      -58.801640
 C         -65.142792     -167.853455      -57.434605
 C         -64.019463     -167.030014      -58.015633
 H         -61.659439     -169.570984      -58.446888
 H         -61.650726     -168.373184      -57.186234
 H         -65.481781     -169.290207      -55.993179
 H         -64.225365     -168.205338      -55.498768
 H         -63.561504     -168.630768      -59.496925
 H         -62.252235     -167.305710      -59.306438
 H         -65.896629     -167.235657      -57.012863
 H         -65.682571     -168.380966      -58.223446
 H         -64.470291     -166.386230      -58.725655
 H         -63.541412     -166.433853      -57.205524
