20
 generated by VMD
 C         -12.032087      -37.460449       -7.425855
 N         -11.040752      -37.849529       -7.821533
 H         -12.365013      -41.031128       -8.371094
 H         -13.451096      -40.259457       -7.177498
 C         -13.464894      -40.830193       -8.162818
 C         -14.197413      -42.152782       -8.106044
 C         -14.085719      -39.900154       -9.273257
 C         -15.750447      -41.955734       -7.820488
 C         -15.636415      -39.702126       -9.166721
 C         -16.368748      -41.025040       -8.909471
 H         -13.782360      -42.854588       -7.388319
 H         -14.138206      -42.671043       -9.079331
 H         -13.570942      -38.976456       -9.362052
 H         -13.858016      -40.430710      -10.207830
 H         -15.850270      -41.555412       -6.835214
 H         -16.303652      -42.915733       -7.838191
 H         -16.036188      -39.237831      -10.034298
 H         -15.696996      -38.995064       -8.281160
 H         -17.371868      -40.829159       -8.538836
 H         -16.464319      -41.623219       -9.849256
