20
 generated by VMD
 C          -1.827888      -13.025917        0.515097
 N          -1.533314      -13.738085        1.329575
 H          -3.405374      -15.800934        1.580160
 H          -4.197264      -15.389327        0.076661
 C          -4.381727      -15.800921        1.075868
 C          -5.527302      -14.983021        1.767087
 C          -4.723904      -17.259401        0.912948
 C          -6.843727      -15.171228        0.896526
 C          -6.029048      -17.463671        0.158731
 C          -7.154280      -16.641441        0.786509
 H          -5.323077      -13.925307        1.883680
 H          -5.738984      -15.301234        2.843821
 H          -3.957444      -17.731915        0.457329
 H          -4.827667      -17.671228        1.861433
 H          -6.741980      -14.687845       -0.059591
 H          -7.604992      -14.586163        1.348628
 H          -6.242685      -18.538521        0.259672
 H          -5.975008      -17.281633       -0.886969
 H          -8.084282      -16.750122        0.203024
 H          -7.361929      -17.071785        1.773479
