20
 generated by VMD
 C         -41.738159     -102.218292      -34.064144
 N         -40.848404     -101.860146      -34.656738
 H         -39.456692     -103.928154      -32.611637
 H         -42.343819     -102.845543      -33.366158
 C         -38.424046     -103.976387      -32.142578
 C         -37.316471     -103.609154      -33.073212
 C         -38.040283     -104.863297      -31.015564
 C         -36.018677     -103.315277      -32.364189
 C         -36.864319     -104.359215      -30.200747
 C         -35.631824     -104.225273      -31.064043
 H         -37.497200     -102.720047      -33.707867
 H         -37.420593     -104.424538      -33.742302
 H         -38.922165     -104.845924      -30.399996
 H         -37.911823     -105.921585      -31.292593
 H         -35.865452     -102.325897      -31.911297
 H         -35.190861     -103.436874      -33.079350
 H         -36.633732     -105.051117      -29.474636
 H         -37.134983     -103.419151      -29.645226
 H         -34.851791     -103.781227      -30.502594
 H         -35.360527     -105.286819      -31.351763
