20
 generated by VMD
 C         -10.671371      -36.620468       -8.750994
 N         -10.796472      -36.537716       -7.664436
 H         -13.295757      -37.385983       -7.096729
 H         -14.499092      -38.310860       -6.222746
 C         -13.976335      -38.249672       -7.187339
 C         -13.039580      -39.416485       -7.389407
 C         -15.057483      -38.245113       -8.255920
 C         -13.902295      -40.666626       -7.167829
 C         -15.842250      -39.505066       -8.250793
 C         -15.027678      -40.796501       -8.175750
 H         -12.197052      -39.331242       -6.671692
 H         -12.600703      -39.522205       -8.384581
 H         -15.673663      -37.363770       -8.049843
 H         -14.627841      -38.064617       -9.176674
 H         -14.281754      -40.632812       -6.132862
 H         -13.312947      -41.545837       -7.115775
 H         -16.459867      -39.503525       -9.221204
 H         -16.505991      -39.474678       -7.425476
 H         -15.661345      -41.685211       -8.019717
 H         -14.574401      -40.898548       -9.129006
