20
 generated by VMD
 C         -13.314661      -44.962440       -6.143388
 N         -14.299651      -44.412205       -6.147244
 H         -14.940672      -44.496693       -9.111100
 H         -14.508347      -43.911690      -10.785708
 C         -15.293215      -44.301289      -10.160075
 C         -16.459667      -43.280815      -10.022446
 C         -15.719668      -45.659504      -10.734804
 C         -16.967257      -43.116955      -11.451935
 C         -16.124561      -45.419514      -12.227544
 C         -17.240698      -44.393551      -12.274650
 H         -16.155567      -42.266159       -9.726260
 H         -17.141296      -43.753422       -9.361730
 H         -14.938848      -46.402035      -10.665719
 H         -16.646217      -45.963409      -10.259853
 H         -16.215660      -42.469021      -11.957853
 H         -17.913246      -42.536663      -11.432607
 H         -16.467392      -46.382793      -12.681494
 H         -15.297631      -45.044758      -12.741193
 H         -17.477116      -44.151192      -13.334994
 H         -18.202923      -44.785583      -11.902881
