20
 generated by VMD
 C         -60.250050     -156.383621      -55.922813
 N         -60.808273     -155.361206      -55.842350
 H         -59.694225     -157.974930      -53.007690
 H         -59.746643     -157.320221      -56.197063
 C         -58.815651     -157.895187      -52.443924
 C         -57.911575     -156.672028      -52.511909
 C         -58.244534     -159.192810      -51.952789
 C         -57.308582     -156.459167      -51.118206
 C         -57.547745     -158.912827      -50.662529
 C         -56.613544     -157.795059      -50.677471
 H         -58.637142     -155.889938      -52.755215
 H         -57.096661     -156.967789      -53.171505
 H         -59.078060     -159.845673      -51.709530
 H         -57.614204     -159.658142      -52.764793
 H         -58.107323     -156.163986      -50.531895
 H         -56.562847     -155.677521      -51.034580
 H         -56.970230     -159.796997      -50.432034
 H         -58.269718     -158.963715      -49.862606
 H         -56.149834     -157.690979      -49.708725
 H         -55.696484     -157.993790      -51.315178
