20
 generated by VMD
 C         -14.009731      -28.772461       -7.285530
 N         -13.284217      -28.933796       -8.119689
 H         -11.657882      -30.340536       -4.810082
 H         -10.110124      -30.009125       -3.972961
 C         -10.726193      -30.807806       -4.347514
 C          -9.996088      -31.425373       -5.511229
 C         -10.972458      -31.820045       -3.262782
 C          -8.692602      -32.078274       -5.050206
 C          -9.675040      -32.309864       -2.703669
 C          -8.873456      -33.018181       -3.771787
 H          -9.909752      -30.610010       -6.267039
 H         -10.586507      -32.245564       -6.000885
 H         -11.614464      -31.329777       -2.480117
 H         -11.553555      -32.666878       -3.671177
 H          -7.998771      -31.268080       -4.689706
 H          -8.145618      -32.683743       -5.803721
 H          -9.825577      -32.977501       -1.885565
 H          -9.031774      -31.470999       -2.282504
 H          -7.881462      -33.219139       -3.339197
 H          -9.325984      -33.956982       -4.119115
