20
 generated by VMD
 C         -79.553207     -206.696304      -75.028015
 N         -80.026413     -206.147751      -74.076530
 H         -78.478798     -206.786835      -71.283714
 H         -79.075012     -206.985672      -75.909081
 C         -77.504288     -206.816666      -70.833679
 C         -76.367775     -205.972702      -71.398178
 C         -77.305405     -208.173996      -70.239960
 C         -75.356049     -205.940720      -70.317810
 C         -76.246826     -207.986877      -69.126129
 C         -74.975372     -207.257706      -69.690498
 H         -76.580551     -204.964371      -71.751366
 H         -76.223137     -206.583344      -72.244957
 H         -78.280945     -208.603577      -69.877068
 H         -76.916122     -208.807938      -71.029579
 H         -75.492676     -205.095306      -69.565323
 H         -74.378448     -205.581863      -70.792587
 H         -76.045692     -209.004440      -68.670906
 H         -76.656227     -207.367996      -68.343018
 H         -74.185524     -207.146072      -68.989662
 H         -74.514252     -208.035278      -70.401779
