20
 generated by VMD
 C         -40.595646      -99.992317      -29.509926
 N         -40.074844     -100.170578      -28.492817
 H         -37.392986      -99.650269      -30.553080
 H         -41.064671      -99.570778      -30.450407
 C         -36.410309      -99.226738      -30.794794
 C         -35.968807      -99.266838      -32.241425
 C         -35.444077      -98.999626      -29.668352
 C         -34.789677      -98.334038      -32.490124
 C         -34.212940      -98.109756      -29.959751
 C         -33.663494      -98.126434      -31.365406
 H         -36.745296      -98.983475      -32.941048
 H         -35.844936     -100.372551      -32.386669
 H         -35.996532      -98.928459      -28.742437
 H         -34.944302     -100.054451      -29.682167
 H         -35.175678      -97.301292      -32.686287
 H         -34.234257      -98.586723      -33.377586
 H         -33.403271      -98.092567      -29.255857
 H         -34.572975      -97.063416      -29.751778
 H         -33.109013      -97.184029      -31.526413
 H         -32.881477      -98.874939      -31.356472
