20
 generated by VMD
 C         -68.209801     -188.463806      -66.820076
 N         -68.687454     -187.968643      -67.746071
 H         -68.230072     -186.966553      -63.361431
 H         -67.755707     -188.967972      -65.927315
 C         -69.181206     -187.464798      -63.494701
 C         -69.357407     -188.791901      -62.762745
 C         -70.432846     -186.626404      -63.666737
 C         -70.651199     -189.460571      -63.052460
 C         -71.755989     -187.393707      -63.727566
 C         -71.854050     -188.631271      -62.801945
 H         -69.375305     -188.496414      -61.694233
 H         -68.475410     -189.413223      -62.949207
 H         -70.496391     -185.914703      -62.857216
 H         -70.334572     -185.855286      -64.503235
 H         -70.763809     -190.336823      -62.385853
 H         -70.732849     -189.785233      -64.124931
 H         -71.871117     -187.772095      -64.733810
 H         -72.587761     -186.718063      -63.580952
 H         -71.844391     -188.402115      -61.775951
 H         -72.505814     -189.346207      -63.136677
