20
 generated by VMD
 C         -11.791294      -33.650284       -8.660723
 N         -10.901491      -34.257069       -8.822277
 H         -11.570594      -36.810581       -8.043938
 H         -12.106297      -36.192181       -6.534868
 C         -12.239275      -37.010891       -7.205213
 C         -12.043271      -38.388378       -6.608202
 C         -13.675983      -36.920567       -7.757057
 C         -13.024608      -38.640079       -5.453636
 C         -14.710252      -37.156548       -6.629128
 C         -14.425645      -38.607559       -6.007064
 H         -10.999671      -38.343311       -6.243668
 H         -12.021014      -39.196583       -7.330450
 H         -13.889696      -35.920044       -8.243217
 H         -13.772092      -37.537010       -8.624780
 H         -12.895244      -37.883038       -4.623497
 H         -12.837742      -39.564373       -4.967200
 H         -15.770042      -37.231316       -7.042371
 H         -14.686721      -36.408058       -5.871593
 H         -15.127298      -38.827797       -5.173203
 H         -14.532998      -39.370827       -6.806587
