20
 generated by VMD
 C         -56.811703     -150.533264      -47.882061
 N         -57.854843     -150.669968      -48.474434
 H         -53.936348     -148.521606      -47.269691
 H         -55.888393     -150.257187      -47.430485
 C         -54.144775     -148.505173      -48.313206
 C         -53.512882     -149.281219      -49.380344
 C         -54.696110     -147.160919      -48.677761
 C         -54.206406     -149.156769      -50.849369
 C         -55.522369     -147.065231      -49.942120
 C         -54.659977     -147.698135      -51.220642
 H         -53.684715     -150.296753      -49.290333
 H         -52.416309     -149.036057      -49.357903
 H         -55.158840     -146.770782      -47.735008
 H         -53.759583     -146.560486      -48.817883
 H         -54.969810     -149.913391      -50.749138
 H         -53.447021     -149.483994      -51.582256
 H         -55.681232     -145.962753      -50.211395
 H         -56.479923     -147.492767      -49.910599
 H         -55.206543     -147.613831      -52.203995
 H         -53.757008     -147.086166      -51.344334
