20
 generated by VMD
 C         -29.157114      -80.379112      -26.992859
 N         -30.018299      -80.187744      -27.716084
 H         -28.244081      -82.814865      -24.522154
 H         -28.518257      -80.441277      -26.061773
 C         -29.173931      -83.074615      -24.116249
 C         -29.426964      -83.029190      -22.540228
 C         -29.951981      -84.070023      -24.928789
 C         -30.965578      -83.239136      -22.197367
 C         -31.410210      -84.068871      -24.488710
 C         -31.628401      -84.243675      -22.969309
 H         -28.991610      -82.025780      -22.066212
 H         -28.817781      -83.827339      -22.065220
 H         -29.850254      -83.793732      -26.024225
 H         -29.590986      -85.047325      -24.799746
 H         -31.368582      -82.291893      -22.367640
 H         -31.163168      -83.393806      -21.053383
 H         -32.062199      -84.925446      -24.891270
 H         -31.943604      -83.134766      -24.697172
 H         -32.772865      -84.194786      -22.836538
 H         -31.276312      -85.191345      -22.607193
