20
 generated by VMD
 C         -12.873643      -27.313244       -2.104860
 N         -11.801808      -27.417309       -1.848041
 H         -10.473354      -26.200060       -4.536716
 H          -8.922879      -26.013165       -5.467075
 C          -9.346554      -26.375233       -4.526557
 C          -9.058194      -27.823389       -4.390137
 C          -8.741629      -25.573191       -3.412681
 C          -7.585723      -28.130095       -4.258564
 C          -7.253097      -25.893806       -3.078641
 C          -6.863344      -27.345047       -3.199343
 H          -9.371076      -28.409792       -5.227522
 H          -9.590828      -28.100941       -3.453986
 H          -8.987006      -24.519304       -3.538892
 H          -9.322971      -25.846956       -2.520048
 H          -7.183328      -27.736420       -5.170798
 H          -7.381367      -29.157427       -4.107266
 H          -7.040570      -25.485788       -2.067030
 H          -6.704657      -25.416340       -3.887342
 H          -5.778145      -27.400269       -3.326230
 H          -7.191216      -27.864738       -2.253765
