20
 generated by VMD
 C         -38.701015     -111.802010      -35.950039
 N         -38.477444     -111.191063      -36.878433
 H         -40.657688     -114.787766      -34.947624
 H         -39.090996     -112.160736      -34.975830
 C         -41.548302     -114.425949      -35.317482
 C         -41.752464     -114.357986      -36.810951
 C         -42.213852     -113.337120      -34.506748
 C         -43.299488     -114.445229      -37.078911
 C         -43.722340     -113.171577      -34.749195
 C         -43.910622     -113.178284      -36.364746
 H         -41.331875     -115.258034      -37.326908
 H         -41.420513     -113.497299      -37.416599
 H         -42.160324     -113.554024      -33.439156
 H         -41.645424     -112.400803      -34.545624
 H         -43.737812     -115.412323      -36.649803
 H         -43.490627     -114.498634      -38.145916
 H         -44.113461     -112.240578      -34.306767
 H         -44.096218     -114.091835      -34.304920
 H         -45.070335     -113.291771      -36.614384
 H         -43.589718     -112.174515      -36.818588
