20
 generated by VMD
 C         -40.894955     -104.028519      -36.750561
 N         -41.338863     -104.977036      -36.274731
 H         -39.066235     -105.138924      -33.859833
 H         -40.267517     -103.352150      -37.309933
 C         -38.865765     -105.950035      -33.265568
 C         -37.469582     -105.958115      -32.508530
 C         -39.692226     -107.236259      -33.409733
 C         -37.515221     -106.688087      -31.232807
 C         -39.514065     -108.101303      -32.173538
 C         -38.067623     -108.088036      -31.530979
 H         -37.155617     -104.861984      -32.337494
 H         -36.726147     -106.441154      -33.162251
 H         -40.640034     -106.795067      -33.666649
 H         -39.215096     -107.770004      -34.235909
 H         -38.160877     -106.179810      -30.546919
 H         -36.532936     -106.876617      -30.757536
 H         -39.899994     -109.059311      -32.415508
 H         -40.161976     -107.556114      -31.483934
 H         -38.170574     -108.592766      -30.511517
 H         -37.305099     -108.553528      -32.110882
