20
 generated by VMD
 C         -78.670242     -209.884827      -76.665344
 N         -77.666878     -210.165695      -77.218620
 H         -79.579514     -211.453156      -74.356644
 H         -79.516624     -209.538589      -76.163551
 C         -79.587357     -212.140549      -73.478027
 C         -78.275169     -212.367081      -72.752922
 C         -80.608910     -213.142609      -73.135689
 C         -78.330696     -212.788162      -71.206779
 C         -80.703598     -213.306839      -71.616226
 C         -79.386429     -213.892120      -70.941223
 H         -77.718369     -211.452133      -72.918541
 H         -77.714371     -213.159882      -73.327240
 H         -81.559181     -212.833466      -73.575424
 H         -80.282722     -214.078156      -73.566612
 H         -78.570625     -211.871323      -70.633392
 H         -77.413910     -213.240631      -70.829826
 H         -81.443222     -214.131714      -71.290184
 H         -80.858681     -212.413391      -71.167572
 H         -79.537643     -213.967880      -69.806641
 H         -78.933434     -214.779572      -71.545219
