20
 generated by VMD
 C         -40.442024     -118.808441      -35.462170
 N         -39.535015     -118.237175      -34.994480
 H         -43.424999     -116.604965      -36.072605
 H         -41.378551     -119.278999      -35.925014
 C         -43.839703     -116.881752      -37.040394
 C         -42.980324     -117.357468      -38.154697
 C         -45.165585     -116.262344      -37.404060
 C         -43.799168     -118.203690      -39.151344
 C         -45.919125     -117.085518      -38.484608
 C         -44.954414     -117.469696      -39.680836
 H         -42.087284     -117.932274      -37.731377
 H         -42.411530     -116.534576      -38.762596
 H         -45.813400     -116.430321      -36.495636
 H         -45.186001     -115.238541      -37.582878
 H         -44.193745     -119.125145      -38.771130
 H         -43.063927     -118.580940      -39.879490
 H         -46.731377     -116.429855      -38.876316
 H         -46.235764     -117.998108      -38.159397
 H         -45.551865     -118.012314      -40.464321
 H         -44.582508     -116.589333      -40.192291
