20
 generated by VMD
 C         -49.302307     -141.106171      -45.644669
 N         -48.427994     -141.411469      -44.958050
 H         -51.367874     -138.591324      -46.003658
 H         -50.024227     -140.623734      -46.257751
 C         -52.107235     -139.321808      -46.278740
 C         -52.609818     -139.416061      -47.749332
 C         -52.906010     -139.906555      -45.210300
 C         -53.361176     -140.677780      -47.998718
 C         -53.351028     -141.332077      -45.525650
 C         -54.199329     -141.331039      -46.780167
 H         -51.729874     -139.229370      -48.380829
 H         -53.352104     -138.593872      -47.973434
 H         -52.260773     -139.983597      -44.314945
 H         -53.744671     -139.291061      -44.874493
 H         -52.686657     -141.447800      -48.159351
 H         -53.882469     -140.557449      -48.947186
 H         -53.888596     -141.796265      -44.598701
 H         -52.491386     -142.052658      -45.527153
 H         -54.414875     -142.392502      -47.175289
 H         -55.194942     -140.936630      -46.391647
