20
 generated by VMD
 C         -31.376341      -93.365364      -26.133366
 N         -31.967747      -93.893326      -25.273787
 H         -33.601086      -94.329185      -28.093470
 H         -31.037172      -92.850296      -26.977055
 C         -34.068306      -93.335327      -28.346931
 C         -35.541962      -93.082687      -28.125719
 C         -33.340027      -92.734283      -29.527494
 C         -35.773319      -91.597557      -28.190186
 C         -33.758934      -91.291992      -29.672438
 C         -35.291130      -91.026634      -29.557835
 H         -35.814117      -93.410454      -27.098993
 H         -36.036457      -93.861313      -28.678238
 H         -32.261086      -92.927330      -29.262989
 H         -33.648201      -93.247948      -30.461262
 H         -35.130161      -91.064507      -27.560827
 H         -36.846466      -91.270477      -28.043110
 H         -33.345955      -91.007805      -30.662025
 H         -33.205212      -90.664627      -28.943794
 H         -35.564537      -89.981171      -29.712355
 H         -35.603729      -91.582809      -30.370424
