20
 generated by VMD
 C         -11.515471      -41.684750       -6.947063
 N         -11.710917      -42.386322       -6.116631
 H         -14.791712      -42.945675       -8.276815
 H         -14.969734      -41.674107       -9.357465
 C         -15.279821      -42.692120       -9.131916
 C         -16.804079      -42.771255       -8.959315
 C         -14.808587      -43.604286      -10.224627
 C         -17.523872      -42.441734      -10.295584
 C         -15.626950      -43.377247      -11.534067
 C         -17.145424      -43.520206      -11.324203
 H         -17.071846      -41.985260       -8.252737
 H         -17.089243      -43.682713       -8.530228
 H         -13.774583      -43.336735      -10.485936
 H         -14.973488      -44.607063       -9.871984
 H         -17.168743      -41.443047      -10.586323
 H         -18.624628      -42.489330      -10.223323
 H         -15.269716      -44.101852      -12.318758
 H         -15.393826      -42.382446      -11.869309
 H         -17.732435      -43.380512      -12.274717
 H         -17.491390      -44.458130      -10.879248
