20
 generated by VMD
 C         -41.536964     -119.346931      -34.519363
 N         -41.137997     -119.888000      -35.495903
 H         -43.266464     -118.420441      -36.670723
 H         -42.115543     -118.977051      -33.661858
 C         -43.765694     -118.117142      -37.560593
 C         -42.931160     -118.084732      -38.765251
 C         -45.127186     -117.481308      -37.556881
 C         -43.811234     -118.611107      -39.981182
 C         -45.841949     -117.898811      -38.932922
 C         -45.114426     -117.823822      -40.227329
 H         -42.063747     -118.719910      -38.506477
 H         -42.567024     -116.974869      -38.963581
 H         -45.601795     -117.919518      -36.661213
 H         -45.230171     -116.353714      -37.478981
 H         -44.055328     -119.684052      -39.766182
 H         -43.063499     -118.614151      -40.849037
 H         -46.675545     -117.194405      -38.844749
 H         -46.321091     -118.839050      -38.788387
 H         -45.742172     -118.269020      -40.954048
 H         -44.987602     -116.814056      -40.521954
