20
 generated by VMD
 C         -47.920391     -134.970749      -46.318008
 N         -47.771175     -134.714661      -47.443558
 H         -51.097927     -134.633865      -45.311459
 H         -47.872932     -135.073959      -45.217625
 C         -51.020748     -135.523911      -44.786884
 C         -51.532764     -136.691833      -45.354733
 C         -51.202702     -135.333374      -43.268467
 C         -51.231087     -137.988525      -44.522797
 C         -50.904823     -136.624039      -42.527870
 C         -51.647717     -137.783295      -43.075603
 H         -51.240295     -136.937714      -46.413937
 H         -52.574509     -136.629776      -45.366703
 H         -50.461021     -134.605499      -42.980942
 H         -52.190567     -135.000763      -42.914814
 H         -50.144535     -138.144547      -44.471115
 H         -51.627354     -138.817917      -45.129936
 H         -51.096401     -136.557083      -41.411102
 H         -49.839264     -136.737717      -42.724506
 H         -51.331196     -138.689148      -42.462692
 H         -52.698536     -137.711914      -43.061405
