20
 generated by VMD
 C         -39.577480     -100.426971      -30.834465
 N         -40.493275     -100.168968      -31.490734
 H         -37.457397     -102.483818      -30.701670
 H         -38.757858     -100.797501      -30.319477
 C         -36.697556     -101.844353      -30.986572
 C         -36.713333     -101.225349      -32.413750
 C         -35.408447     -101.464890      -29.982637
 C         -36.507221      -99.640778      -32.083057
 C         -35.153622     -100.015213      -29.954508
 C         -35.113098      -99.452003      -31.449896
 H         -37.680267     -101.416153      -32.906750
 H         -35.980034     -101.816345      -32.987770
 H         -35.685772     -101.984787      -29.033175
 H         -34.585949     -101.977768      -30.453548
 H         -37.290298      -99.177803      -31.501669
 H         -36.474049      -99.028999      -33.065067
 H         -34.213356      -99.812569      -29.482098
 H         -35.934372      -99.499847      -29.398399
 H         -34.777294      -98.379631      -31.532707
 H         -34.379162     -100.092216      -32.003433
