20
 generated by VMD
 C         -57.165405     -150.968155      -48.294464
 N         -58.286362     -151.139221      -48.546970
 H         -54.638054     -148.852798      -47.421326
 H         -56.116802     -150.933624      -47.999882
 C         -54.180931     -148.572372      -48.349918
 C         -53.657074     -149.489838      -49.390095
 C         -54.639481     -147.131607      -48.748840
 C         -54.377716     -149.434769      -50.699257
 C         -55.168278     -147.051788      -50.181290
 C         -54.506935     -147.964661      -51.186634
 H         -53.534107     -150.480865      -48.983116
 H         -52.650764     -149.100357      -49.498154
 H         -55.453079     -146.763580      -48.017254
 H         -53.787350     -146.467941      -48.645351
 H         -55.267685     -150.043579      -50.535690
 H         -53.811634     -149.900925      -51.492470
 H         -55.186428     -145.947098      -50.641846
 H         -56.145901     -147.411392      -50.070187
 H         -55.285473     -147.884232      -51.957775
 H         -53.608398     -147.476440      -51.437019
