20
 generated by VMD
 C         -23.074244      -53.553886      -13.654645
 N         -23.518843      -52.731888      -14.397611
 H         -20.606384      -54.970425      -14.804275
 H         -22.512146      -53.996773      -12.818937
 C         -19.691572      -54.899666      -13.980091
 C         -19.175516      -53.560112      -13.730106
 C         -18.681263      -55.977699      -14.270575
 C         -17.846920      -53.543224      -12.998663
 C         -17.412886      -56.036221      -13.412100
 C         -16.781946      -54.655895      -13.329412
 H         -19.955534      -52.962524      -13.251802
 H         -19.088238      -52.998856      -14.652555
 H         -19.102184      -56.974979      -14.230706
 H         -18.355986      -55.825916      -15.320088
 H         -17.993177      -53.634148      -11.924395
 H         -17.434502      -52.542709      -13.225804
 H         -16.731016      -56.827076      -13.768055
 H         -17.703636      -56.279716      -12.393389
 H         -16.028238      -54.629978      -12.528514
 H         -16.344662      -54.427517      -14.361929
