20
 generated by VMD
 C         -11.799218      -41.551521       -6.233285
 N         -10.856262      -41.973923       -6.693427
 H         -14.690765      -41.455669       -8.404169
 H         -15.436429      -40.842834       -9.693394
 C         -15.318385      -41.780327       -9.256764
 C         -16.679848      -42.328102       -8.741357
 C         -14.659821      -42.849667      -10.180520
 C         -17.577230      -42.445560       -9.958737
 C         -15.547565      -43.205158      -11.350951
 C         -16.949797      -43.498539      -10.929822
 H         -17.116554      -41.571499       -8.101707
 H         -16.509533      -43.273388       -8.221355
 H         -13.707296      -42.377125      -10.564787
 H         -14.494615      -43.746601       -9.537002
 H         -17.606230      -41.518391      -10.585349
 H         -18.565367      -42.835110       -9.653781
 H         -15.129042      -43.936249      -11.972066
 H         -15.573451      -42.272800      -12.018666
 H         -17.637030      -43.526863      -11.774788
 H         -16.959433      -44.551933      -10.578271
