20
 generated by VMD
 C         -59.894573     -152.341873      -51.042118
 N         -60.771553     -153.121933      -51.256470
 H         -56.732944     -152.391739      -48.824947
 H         -59.054169     -151.695053      -50.893978
 C         -55.939968     -151.915817      -49.390755
 C         -54.690361     -152.745438      -49.606251
 C         -55.933033     -150.419647      -49.691227
 C         -54.146347     -152.227463      -50.900146
 C         -55.172161     -150.005753      -50.892300
 C         -53.877472     -150.681458      -50.915493
 H         -54.822762     -153.822632      -49.665504
 H         -53.984287     -152.529251      -48.707317
 H         -56.903492     -150.055801      -49.922028
 H         -55.518177     -149.799789      -48.942570
 H         -54.752171     -152.529205      -51.790985
 H         -53.194309     -152.714523      -51.080250
 H         -55.072376     -148.882263      -51.015331
 H         -55.664341     -150.379761      -51.754013
 H         -53.423325     -150.568832      -51.935219
 H         -53.156948     -150.440796      -50.155899
