20
 generated by VMD
 C         -41.536247     -119.354271      -34.551502
 N         -40.972908     -119.748627      -35.517609
 H         -43.416317     -118.437523      -36.604660
 H         -41.932476     -118.730370      -33.788391
 C         -43.777042     -117.951530      -37.562565
 C         -42.905373     -118.061768      -38.740246
 C         -45.159843     -117.394958      -37.603939
 C         -43.749096     -118.649910      -39.956730
 C         -45.932354     -117.889153      -38.819748
 C         -45.069523     -117.754189      -40.059063
 H         -42.115166     -118.702988      -38.407578
 H         -42.466496     -117.148163      -38.895744
 H         -45.648071     -117.543594      -36.672871
 H         -45.218384     -116.281609      -37.764137
 H         -43.844414     -119.741272      -39.867828
 H         -43.150276     -118.493858      -40.792431
 H         -46.886784     -117.213104      -39.046322
 H         -46.369164     -118.941429      -38.859138
 H         -45.647873     -117.909706      -40.992302
 H         -44.767555     -116.602493      -40.141487
