20
 generated by VMD
 C          -1.449796      -11.609219        1.587607
 N          -1.118868      -12.308332        0.744969
 H          -3.806267      -13.173529        0.517838
 H          -5.523837      -12.893582        0.770046
 C          -4.684781      -13.594348        0.927252
 C          -4.355612      -13.912569        2.384244
 C          -4.855406      -14.939021        0.128988
 C          -5.555326      -14.648226        3.063453
 C          -5.939275      -15.745871        0.748918
 C          -5.797692      -15.935126        2.237746
 H          -4.213343      -12.986719        2.973576
 H          -3.389988      -14.442898        2.575797
 H          -5.067225      -14.796940       -0.886184
 H          -3.916362      -15.427769        0.104407
 H          -6.493806      -14.042012        2.913266
 H          -5.523398      -14.840323        4.153533
 H          -5.908420      -16.799755        0.362926
 H          -6.960378      -15.383430        0.514701
 H          -6.593741      -16.522839        2.661298
 H          -4.921796      -16.506935        2.360384
