20
 generated by VMD
 C         -11.528364      -41.998898       -7.056909
 N         -11.999841      -42.305035       -6.100044
 H         -14.794803      -43.194359       -8.199134
 H         -14.933056      -41.954449       -9.379453
 C         -15.257845      -42.948311       -9.090395
 C         -16.765732      -42.753632       -8.975937
 C         -14.866775      -43.860966      -10.266611
 C         -17.555717      -42.544266      -10.276851
 C         -15.602724      -43.410740      -11.577862
 C         -17.121181      -43.477570      -11.465838
 H         -16.883005      -41.844048       -8.389130
 H         -17.218380      -43.561569       -8.456250
 H         -13.784409      -43.660488      -10.470032
 H         -15.168777      -44.862919      -10.029129
 H         -17.267555      -41.547050      -10.667680
 H         -18.643036      -42.612892      -10.058534
 H         -15.325191      -44.066929      -12.381006
 H         -15.209158      -42.404621      -11.924356
 H         -17.595907      -43.182514      -12.420942
 H         -17.554346      -44.472118      -11.250525
