20
 generated by VMD
 C         -12.054091      -41.486263       -7.595478
 N         -11.687915      -40.716084       -6.860180
 H         -13.873217      -40.749512       -8.343311
 H         -15.216421      -40.165207       -9.412156
 C         -14.798892      -41.063808       -8.940567
 C         -15.942648      -41.722801       -8.176233
 C         -14.222580      -41.999325      -10.019626
 C         -17.097088      -42.206017       -9.046536
 C         -15.315725      -42.521996      -10.966866
 C         -16.514528      -43.115395      -10.149191
 H         -16.246702      -41.020790       -7.398210
 H         -15.579727      -42.544460       -7.614679
 H         -13.478353      -41.566650      -10.671494
 H         -13.711330      -42.823662       -9.555193
 H         -17.561682      -41.340164       -9.491062
 H         -17.926069      -42.668415       -8.473078
 H         -14.851962      -43.307888      -11.667468
 H         -15.665788      -41.662704      -11.558484
 H         -17.355442      -43.375797      -10.855904
 H         -16.129581      -44.009766       -9.614087
