20
 generated by VMD
 C         -58.554523     -161.415924      -56.314667
 N         -58.390648     -160.256500      -56.418423
 H         -59.512146     -164.796814      -55.164753
 H         -58.809750     -162.469421      -56.165947
 C         -60.190987     -164.124069      -54.671974
 C         -59.786560     -163.568130      -53.383423
 C         -61.619579     -164.215988      -54.941265
 C         -60.369247     -162.201004      -53.272377
 C         -62.289581     -162.905960      -54.593437
 C         -61.816727     -162.182846      -53.364567
 H         -58.715668     -163.555756      -53.343052
 H         -60.106277     -164.242294      -52.615520
 H         -61.738083     -164.425308      -56.004543
 H         -62.025917     -165.024170      -54.306858
 H         -60.053448     -161.514984      -54.080860
 H         -60.014526     -161.809769      -52.279480
 H         -63.383331     -163.062302      -54.652695
 H         -62.217407     -162.224457      -55.385139
 H         -62.124409     -161.089325      -53.574066
 H         -62.316723     -162.601776      -52.492039
