20
 generated by VMD
 C         -79.169518     -204.445938      -70.653641
 N         -80.183495     -205.040192      -70.668503
 H         -76.753868     -202.885147      -68.547211
 H         -78.238976     -203.901855      -70.752724
 C         -75.793190     -202.968781      -69.121216
 C         -75.632988     -202.276779      -70.427559
 C         -74.750572     -203.943924      -68.809013
 C         -74.292328     -201.498138      -70.258629
 C         -73.316483     -203.439270      -69.178780
 C         -73.248398     -202.473419      -70.448479
 H         -76.372116     -201.499084      -70.547859
 H         -75.735100     -202.868546      -71.347702
 H         -74.856895     -204.251587      -67.750137
 H         -74.928726     -204.765289      -69.490471
 H         -74.166046     -201.003403      -69.304146
 H         -74.226501     -200.644562      -70.957603
 H         -72.551941     -204.272751      -69.344864
 H         -73.025345     -202.874146      -68.340202
 H         -72.282204     -201.970978      -70.403725
 H         -73.489021     -202.942352      -71.408875
