20
 generated by VMD
 C         -79.712578     -205.401321      -71.728149
 N         -79.842255     -206.539597      -71.548492
 H         -76.207382     -204.231949      -72.095123
 H         -79.648041     -204.281433      -71.625145
 C         -76.146507     -204.056229      -71.033546
 C         -75.446342     -202.876404      -70.482216
 C         -76.462891     -205.178711      -70.013374
 C         -74.023750     -203.286896      -70.285683
 C         -75.168640     -205.337585      -69.168869
 C         -73.830879     -204.767715      -69.744545
 H         -76.014435     -202.470322      -69.605759
 H         -75.551468     -202.139725      -71.290337
 H         -77.324615     -204.854996      -69.553444
 H         -76.716118     -206.114670      -70.432381
 H         -73.610001     -202.508881      -69.604614
 H         -73.504623     -203.020126      -71.273071
 H         -74.983299     -206.398056      -68.996315
 H         -75.471970     -204.945389      -68.156555
 H         -72.944336     -204.687805      -69.043579
 H         -73.498039     -205.400223      -70.605499
