20
 generated by VMD
 C         -12.209025      -31.480799       -8.681273
 N         -12.319733      -30.631887       -7.939226
 H         -10.962962      -34.885155       -7.785278
 H         -12.185669      -33.878887       -6.981185
 C         -11.534966      -34.792931       -6.813879
 C         -10.502541      -34.446899       -5.762517
 C         -12.229596      -36.080280       -6.464156
 C         -11.154666      -34.301624       -4.389581
 C         -12.971416      -35.867168       -5.092801
 C         -11.947245      -35.547962       -4.021223
 H         -10.035550      -33.452724       -6.010292
 H          -9.657755      -35.119209       -5.689905
 H         -12.962453      -36.253799       -7.260781
 H         -11.609977      -36.998009       -6.424426
 H         -11.776709      -33.418499       -4.254937
 H         -10.368465      -34.029072       -3.645968
 H         -13.542554      -36.820766       -4.841077
 H         -13.685901      -35.118301       -5.170367
 H         -12.543831      -35.284767       -3.153526
 H         -11.284692      -36.417194       -3.780762
