20
 generated by VMD
 C         -28.107155      -87.159691      -27.157501
 N         -27.693205      -86.949631      -26.078087
 H         -31.164757      -88.369553      -25.256081
 H         -28.591845      -87.408867      -28.041176
 C         -32.161869      -88.277573      -25.677166
 C         -33.380714      -88.648750      -24.806959
 C         -32.382149      -88.402870      -27.193701
 C         -34.554115      -87.706497      -25.297417
 C         -33.587280      -87.563889      -27.687822
 C         -34.781132      -87.780113      -26.871906
 H         -33.082127      -88.344788      -23.736820
 H         -33.664116      -89.670341      -25.074411
 H         -31.462790      -88.068573      -27.786774
 H         -32.517647      -89.486443      -27.282307
 H         -34.280830      -86.696014      -24.975685
 H         -35.538754      -87.786240      -24.726208
 H         -33.848339      -87.787437      -28.697281
 H         -33.323540      -86.414375      -27.741842
 H         -35.558067      -87.024529      -27.060947
 H         -35.281044      -88.806465      -26.902891
