20
 generated by VMD
 C          -9.254838      -24.161903        1.755193
 N          -9.284768      -25.203672        2.177839
 H          -7.757169      -23.136707       -0.737095
 H          -8.820587      -22.664778       -1.857645
 C          -7.774878      -22.961174       -1.812759
 C          -7.515461      -24.252752       -2.700167
 C          -6.775795      -21.853888       -2.221508
 C          -7.730896      -23.940636       -4.250479
 C          -6.956098      -21.554150       -3.678915
 C          -6.848309      -22.724270       -4.658096
 H          -8.212961      -25.025476       -2.401131
 H          -6.437206      -24.557514       -2.569148
 H          -6.975200      -20.928810       -1.717858
 H          -5.722249      -22.150316       -2.040481
 H          -8.760356      -23.586540       -4.316543
 H          -7.491798      -24.885830       -4.781620
 H          -6.241060      -20.799229       -3.979030
 H          -7.958910      -21.107252       -3.742658
 H          -7.058342      -22.386112       -5.687295
 H          -5.750546      -23.020092       -4.648750
