20
 generated by VMD
 C         -57.690025     -165.466995      -56.482208
 N         -57.236427     -164.646652      -57.172298
 H         -60.167427     -164.760101      -54.267620
 H         -58.220787     -166.178787      -55.869667
 C         -61.177658     -164.822830      -54.527691
 C         -61.973927     -166.113373      -54.227283
 C         -61.719154     -163.899490      -55.627163
 C         -63.506767     -166.127426      -54.481342
 C         -63.230976     -163.959320      -55.897427
 C         -63.790108     -165.446213      -55.833481
 H         -61.775536     -166.426605      -53.189983
 H         -61.466423     -166.984634      -54.744919
 H         -61.578266     -162.766312      -55.270027
 H         -61.175194     -163.973175      -56.589340
 H         -63.825924     -165.733734      -53.503620
 H         -63.745819     -167.247101      -54.544464
 H         -63.574570     -163.521820      -56.898430
 H         -63.838364     -163.275330      -55.394287
 H         -64.876305     -165.348526      -55.980000
 H         -63.229614     -166.033142      -56.619484
