20
 generated by VMD
 C         -40.376553     -117.965012      -34.716026
 N         -39.438530     -117.405594      -35.042187
 H         -42.269432     -116.276291      -36.754837
 H         -41.138588     -118.681343      -34.354855
 C         -43.117855     -116.676575      -37.329796
 C         -42.804611     -116.905357      -38.796967
 C         -44.575497     -116.237061      -36.847988
 C         -43.976707     -117.599716      -39.552288
 C         -45.651047     -116.948563      -37.599083
 C         -45.300514     -116.940582      -39.149284
 H         -41.949055     -117.514923      -38.935818
 H         -42.558399     -116.005859      -39.282722
 H         -44.632095     -116.595016      -35.779751
 H         -44.446915     -115.130249      -36.933903
 H         -44.046398     -118.716629      -39.426338
 H         -43.932552     -117.472427      -40.696472
 H         -46.536091     -116.449203      -37.538502
 H         -45.682308     -117.840378      -37.030792
 H         -46.059929     -117.243576      -39.738205
 H         -45.384838     -115.900101      -39.491791
