20
 generated by VMD
 C         -18.316278      -50.376030       -9.250432
 N         -19.422779      -50.232494       -9.284398
 H         -16.366331      -47.041527      -10.156007
 H         -17.531700      -48.322906      -10.285259
 C         -16.815714      -47.677975      -10.905587
 C         -15.623601      -48.587749      -11.463218
 C         -17.417316      -46.858135      -12.063444
 C         -16.074858      -49.387779      -12.670249
 C         -18.122812      -47.865456      -12.946764
 C         -17.002943      -48.639915      -13.625505
 H         -15.318518      -49.373291      -10.713652
 H         -14.779477      -47.885742      -11.678438
 H         -18.022247      -46.074558      -11.649017
 H         -16.604670      -46.409958      -12.627281
 H         -16.588951      -50.328171      -12.355552
 H         -15.137667      -49.567699      -13.184200
 H         -18.733282      -47.300354      -13.684177
 H         -18.733658      -48.524029      -12.383055
 H         -17.494869      -49.332726      -14.387100
 H         -16.303448      -47.988873      -14.267538
