20
 generated by VMD
 C         -19.211666      -63.413181      -16.718143
 N         -20.191839      -62.939327      -17.070066
 H         -22.649466      -64.407524      -17.287802
 H         -18.276840      -64.031052      -16.667057
 C         -23.701515      -64.247414      -17.402884
 C         -24.301785      -64.073013      -18.767458
 C         -24.605803      -65.071037      -16.450974
 C         -24.712587      -65.476082      -19.334923
 C         -24.917650      -66.483109      -17.031967
 C         -25.512627      -66.484032      -18.396809
 H         -23.652597      -63.480934      -19.456842
 H         -25.132536      -63.328026      -18.667429
 H         -24.142469      -65.318909      -15.499875
 H         -25.556038      -64.461670      -16.238361
 H         -23.795980      -65.907608      -19.762297
 H         -25.401136      -65.176025      -20.155153
 H         -25.536419      -66.918205      -16.245293
 H         -24.022615      -67.125824      -17.003244
 H         -25.490450      -67.526939      -18.848286
 H         -26.539972      -66.073074      -18.425842
