20
 generated by VMD
 C          -8.800471      -23.605459        2.516364
 N          -8.112627      -24.350334        2.967726
 H          -8.487788      -23.435184       -1.324884
 H          -9.191664      -22.564415       -2.731774
 C          -8.314895      -22.966015       -2.271639
 C          -7.711359      -23.959654       -3.290408
 C          -7.460148      -21.760698       -1.954886
 C          -7.175110      -23.280882       -4.530490
 C          -6.953165      -21.161276       -3.277401
 C          -6.289749      -22.152437       -4.161769
 H          -8.468936      -24.721434       -3.672199
 H          -6.936005      -24.407681       -2.704383
 H          -8.045095      -21.055624       -1.299094
 H          -6.590897      -21.972776       -1.320862
 H          -7.993072      -22.835136       -5.054922
 H          -6.696917      -23.876165       -5.246042
 H          -6.301547      -20.285088       -3.081565
 H          -7.777384      -20.726368       -3.862463
 H          -5.806238      -21.648573       -5.054142
 H          -5.423942      -22.662739       -3.668163
