20
 generated by VMD
 C         -58.088779     -166.530151      -56.181110
 N         -58.195274     -167.288315      -55.314713
 H         -60.600014     -165.359283      -55.145260
 H         -57.965408     -165.901825      -57.027817
 C         -61.576977     -165.685562      -55.503231
 C         -61.767563     -166.855865      -56.325752
 C         -62.470085     -164.471191      -55.586040
 C         -63.280739     -167.258560      -56.408520
 C         -63.960953     -164.926941      -55.494385
 C         -64.209152     -166.047470      -56.541901
 H         -61.330467     -167.748291      -55.846664
 H         -61.376682     -166.696823      -57.324097
 H         -62.218525     -163.801666      -54.672337
 H         -62.247997     -163.894287      -56.451275
 H         -63.602993     -167.859634      -55.532948
 H         -63.445267     -167.956802      -57.201836
 H         -64.601341     -164.006943      -55.613949
 H         -64.055138     -165.355988      -54.564133
 H         -65.243057     -166.346558      -56.331635
 H         -64.178856     -165.464172      -57.491428
