20
 generated by VMD
 C         -50.698910     -129.982834      -45.016537
 N         -51.500938     -129.205673      -44.885059
 H         -49.215725     -129.442032      -42.389267
 H         -49.975590     -130.720566      -45.199490
 C         -48.178997     -129.653305      -42.148643
 C         -47.939060     -130.995789      -41.605030
 C         -47.500195     -128.528763      -41.595936
 C         -46.484558     -131.219620      -41.174942
 C         -46.064606     -128.855942      -41.198444
 C         -45.907913     -130.098053      -40.310558
 H         -48.079723     -131.657318      -42.374691
 H         -48.665844     -131.284119      -40.766445
 H         -47.550545     -127.795479      -42.511204
 H         -48.050053     -128.120056      -40.806664
 H         -45.720509     -131.429398      -41.989784
 H         -46.520386     -132.308670      -40.692310
 H         -45.627968     -127.940567      -40.765179
 H         -45.512226     -129.151031      -42.092056
 H         -44.845543     -130.161530      -40.093155
 H         -46.516788     -129.835526      -39.425659
