20
 generated by VMD
 C         -11.957924      -25.547022       -0.746274
 N         -12.588177      -25.621000        0.184320
 H          -8.641304      -26.709444       -1.887758
 H          -9.302815      -25.796154       -3.220791
 C          -8.370416      -26.067848       -2.744966
 C          -7.375547      -26.856970       -3.617518
 C          -7.690941      -24.762230       -2.216451
 C          -7.070608      -26.030615       -4.885985
 C          -7.341187      -23.947477       -3.516545
 C          -6.462933      -24.719891       -4.499467
 H          -7.761593      -27.758871       -3.997633
 H          -6.519063      -27.110008       -3.066664
 H          -8.417006      -24.278692       -1.612182
 H          -6.812629      -25.032230       -1.573715
 H          -7.953596      -25.911123       -5.492602
 H          -6.423344      -26.660183       -5.494953
 H          -6.875414      -22.963343       -3.313556
 H          -8.274170      -23.668791       -4.013433
 H          -6.245369      -24.190172       -5.434527
 H          -5.407333      -24.806910       -4.080222
