20
 generated by VMD
 C         -15.337994      -47.607193       -6.130795
 N         -15.551114      -46.642525       -5.588103
 H         -16.467461      -47.074581       -9.915375
 H         -15.200243      -46.757771      -11.114176
 C         -16.251669      -46.580231      -10.919983
 C         -16.422449      -45.077995      -10.769593
 C         -17.107677      -47.268257      -12.040646
 C         -16.220194      -44.445812      -12.186878
 C         -16.868824      -46.674294      -13.434787
 C         -17.080681      -45.205055      -13.225876
 H         -15.665458      -44.703377      -10.051392
 H         -17.467947      -44.810978      -10.462515
 H         -16.884800      -48.383438      -12.119076
 H         -18.184282      -47.157360      -11.802854
 H         -15.185516      -44.599762      -12.549562
 H         -16.407852      -43.358521      -12.087234
 H         -17.702312      -47.112438      -14.077925
 H         -16.013693      -46.991467      -13.946105
 H         -17.024599      -44.632793      -14.159376
 H         -18.135057      -45.046165      -13.046601
