20
 generated by VMD
 C         -28.347094      -84.631294      -26.226309
 N         -28.145269      -83.937126      -27.103371
 H         -31.157204      -84.493401      -26.159485
 H         -28.526024      -85.413300      -25.403963
 C         -31.543802      -85.463936      -25.772161
 C         -31.480244      -85.745071      -24.291611
 C         -31.905943      -86.581383      -26.677696
 C         -32.899620      -86.100250      -23.992868
 C         -33.239910      -87.164490      -26.312506
 C         -33.399349      -87.352516      -24.755672
 H         -31.125633      -84.773453      -23.782280
 H         -30.723673      -86.524094      -24.174307
 H         -31.983467      -86.151375      -27.693459
 H         -31.166475      -87.427811      -26.758085
 H         -33.575115      -85.270203      -23.960939
 H         -32.899693      -86.222679      -22.860952
 H         -33.337723      -88.189186      -26.672726
 H         -34.146381      -86.716515      -26.668905
 H         -34.422153      -87.636330      -24.696005
 H         -32.840115      -88.157951      -24.405107
