20
 generated by VMD
 C         -70.274063     -183.119263      -63.995007
 N         -69.930191     -183.278336      -65.068581
 H         -68.470657     -180.089905      -62.503250
 H         -70.546532     -183.018066      -62.932362
 C         -67.692749     -180.385254      -61.772354
 C         -67.791969     -181.749802      -61.288853
 C         -67.001633     -179.479492      -60.739395
 C         -66.476494     -182.325867      -60.928268
 C         -65.635910     -180.162918      -60.433083
 C         -65.699783     -181.512589      -59.900623
 H         -68.213623     -182.375671      -62.162914
 H         -68.459961     -181.893478      -60.447941
 H         -66.831657     -178.512115      -61.293812
 H         -67.535210     -179.111145      -59.913074
 H         -65.931610     -182.560089      -61.756813
 H         -66.532776     -183.275131      -60.476425
 H         -65.141785     -179.455902      -59.728020
 H         -64.906059     -180.141708      -61.272869
 H         -64.577446     -181.861984      -59.773205
 H         -66.168381     -181.618896      -58.921539
