20
 generated by VMD
 C         -13.494572      -30.524723       -8.356937
 N         -13.591183      -30.113552       -9.404785
 H         -11.076303      -31.338581       -5.315134
 H         -11.133531      -31.848009       -3.643141
 C         -10.943820      -32.234646       -4.699914
 C          -9.527625      -32.848171       -4.820963
 C         -11.956005      -33.185760       -5.147446
 C          -9.327969      -34.116539       -4.019982
 C         -11.852714      -34.457146       -4.391613
 C         -10.410104      -35.118988       -4.355377
 H          -8.822662      -31.999294       -4.545585
 H          -9.284578      -32.937740       -5.877651
 H         -12.926788      -32.714554       -4.907606
 H         -11.979431      -33.273354       -6.241673
 H          -9.281545      -33.880699       -2.950672
 H          -8.332618      -34.571270       -4.117396
 H         -12.556263      -35.166000       -4.701210
 H         -12.220119      -34.281593       -3.340075
 H         -10.318614      -35.894718       -3.631613
 H         -10.242862      -35.575317       -5.362864
