20
 generated by VMD
 C         -63.477776     -174.785858      -55.669773
 N         -62.453053     -174.482391      -56.167778
 H         -65.234535     -173.318161      -57.712540
 H         -64.367836     -175.081421      -55.097225
 C         -64.877449     -172.455978      -58.276279
 C         -65.174011     -171.112381      -57.687786
 C         -64.588402     -172.594955      -59.767536
 C         -64.107712     -170.120743      -58.199337
 C         -63.495609     -171.601181      -60.046661
 C         -63.799034     -170.194260      -59.633984
 H         -65.073769     -171.139984      -56.677715
 H         -66.167717     -170.615570      -57.969318
 H         -64.361893     -173.513657      -60.138599
 H         -65.415962     -172.360580      -60.321701
 H         -63.206032     -170.385773      -57.532742
 H         -64.417160     -169.069611      -57.898514
 H         -63.322731     -171.721283      -61.144295
 H         -62.478580     -171.942856      -59.670216
 H         -62.935818     -169.614029      -59.844200
 H         -64.579033     -169.820557      -60.342300
