20
 generated by VMD
 C         -68.865005     -188.823959      -67.078346
 N         -67.958046     -189.414841      -66.699898
 H         -68.488739     -187.536926      -63.632839
 H         -69.641960     -188.217560      -67.469276
 C         -69.399841     -187.954041      -63.266972
 C         -69.719772     -189.364792      -63.444954
 C         -70.496742     -187.156250      -62.813396
 C         -71.048599     -189.625961      -64.279037
 C         -71.677963     -187.275665      -63.748486
 C         -72.232071     -188.739044      -63.930340
 H         -69.866730     -189.882523      -62.420162
 H         -68.687958     -189.809982      -63.821396
 H         -70.820419     -187.514771      -61.819778
 H         -70.144051     -186.033310      -62.909634
 H         -71.318626     -190.731964      -64.290520
 H         -70.845543     -189.466751      -65.313087
 H         -71.521080     -186.999466      -64.772179
 H         -72.441467     -186.675629      -63.174667
 H         -72.555588     -189.040482      -62.894764
 H         -73.173836     -189.001297      -64.597076
