20
 generated by VMD
 C         -13.712262      -42.926998       -6.009494
 N         -12.876015      -43.111797       -6.709840
 H         -14.990788      -44.995640       -8.769502
 H         -14.332171      -43.554577       -9.719591
 C         -15.167942      -44.283382       -9.664177
 C         -16.462887      -43.588482       -9.317348
 C         -15.252564      -45.084335      -10.989016
 C         -16.857996      -42.686989      -10.486996
 C         -15.831358      -44.199799      -12.055262
 C         -17.139570      -43.544872      -11.730509
 H         -16.382244      -43.104610       -8.369673
 H         -17.258295      -44.339611       -9.220337
 H         -14.249021      -45.420322      -11.310066
 H         -15.964051      -45.942223      -10.736539
 H         -16.070225      -41.981110      -10.692063
 H         -17.732128      -42.100323      -10.226878
 H         -16.029297      -44.766617      -12.976975
 H         -15.019669      -43.516956      -12.317217
 H         -17.435566      -42.867512      -12.573027
 H         -17.972237      -44.294605      -11.636192
