20
 generated by VMD
 C         -79.138313     -204.422302      -70.603310
 N         -80.140388     -204.999191      -70.663361
 H         -76.758148     -203.066727      -68.593834
 H         -78.220970     -203.784668      -70.795662
 C         -75.782166     -203.012207      -69.134529
 C         -75.683487     -202.205627      -70.416260
 C         -74.686722     -203.952652      -68.815308
 C         -74.350510     -201.435074      -70.319481
 C         -73.327263     -203.439606      -69.162003
 C         -73.237862     -202.494308      -70.395317
 H         -76.416634     -201.413940      -70.384636
 H         -75.800919     -202.876495      -71.312889
 H         -74.694794     -204.160522      -67.760178
 H         -74.910851     -204.736038      -69.560486
 H         -74.341858     -200.954086      -69.341133
 H         -74.168304     -200.748642      -71.127754
 H         -72.509102     -204.229202      -69.323090
 H         -73.065681     -202.707687      -68.304230
 H         -72.301048     -201.941513      -70.412254
 H         -73.375938     -203.175949      -71.332367
