20
 generated by VMD
 C         -10.634079      -37.385460       -7.825481
 N         -10.663733      -36.277920       -7.979606
 H         -13.305199      -37.521484       -7.671949
 H         -14.487449      -38.162411       -6.495101
 C         -14.023442      -38.379799       -7.457592
 C         -13.155826      -39.679020       -7.488802
 C         -15.192446      -38.415558       -8.543127
 C         -14.016014      -40.954006       -7.340875
 C         -16.016819      -39.683384       -8.316601
 C         -15.203160      -41.009945       -8.371921
 H         -12.448951      -39.566212       -6.671246
 H         -12.654083      -39.724113       -8.432302
 H         -15.818285      -37.493530       -8.372891
 H         -14.765659      -38.433205       -9.520318
 H         -14.539000      -40.865189       -6.337634
 H         -13.348457      -41.811668       -7.413116
 H         -16.897968      -39.796478       -9.044884
 H         -16.474573      -39.691341       -7.366539
 H         -15.843543      -41.882759       -8.149842
 H         -14.893668      -41.155663       -9.379348
