20
 generated by VMD
 C         -67.772964     -185.840302      -67.130402
 N         -68.715538     -185.753006      -67.770050
 H         -68.376953     -188.268631      -64.431396
 H         -66.828369     -185.891479      -66.614861
 C         -69.232010     -187.867310      -63.801147
 C         -68.974243     -186.628479      -63.083939
 C         -70.667358     -188.376129      -63.794701
 C         -69.439247     -186.704193      -61.608089
 C         -71.348747     -188.282578      -62.393047
 C         -70.932976     -187.100006      -61.433319
 H         -69.593155     -185.821945      -63.560665
 H         -67.895409     -186.435760      -63.124214
 H         -71.235413     -187.783325      -64.484917
 H         -70.508636     -189.458725      -63.955986
 H         -69.370361     -185.741272      -61.066734
 H         -68.682213     -187.265121      -61.076519
 H         -70.980118     -189.238678      -61.916168
 H         -72.463257     -188.320312      -62.420422
 H         -71.501152     -186.171936      -61.717136
 H         -71.122345     -187.394363      -60.420326
