20
 generated by VMD
 C         -68.307587     -179.654327      -58.534058
 N         -67.578896     -179.341446      -57.678383
 H         -66.225311     -176.666092      -59.570236
 H         -68.961235     -179.918594      -59.332180
 C         -65.550751     -175.830933      -59.587551
 C         -66.055382     -174.740845      -60.513687
 C         -64.121895     -175.994919      -59.608688
 C         -65.091988     -173.445786      -60.612190
 C         -63.297081     -174.777130      -59.592422
 C         -63.609821     -173.828430      -60.743053
 H         -67.016479     -174.352768      -60.161942
 H         -66.134171     -175.224792      -61.460766
 H         -63.764614     -176.717117      -58.849674
 H         -63.879047     -176.446594      -60.629791
 H         -65.318680     -173.022552      -59.641342
 H         -65.479736     -172.700119      -61.283955
 H         -62.232708     -174.972992      -59.421116
 H         -63.628613     -174.309647      -58.650345
 H         -62.947784     -172.955780      -60.682163
 H         -63.359360     -174.334473      -61.685368
