20
 generated by VMD
 C         -50.573261     -145.044586      -44.972885
 N         -50.771400     -145.915070      -44.186085
 H         -53.750568     -144.488480      -46.522335
 H         -50.633839     -144.212296      -45.722408
 C         -53.599689     -143.538574      -47.043625
 C         -52.531864     -143.383606      -48.208874
 C         -54.705704     -142.549835      -47.061729
 C         -53.367435     -143.459122      -49.601795
 C         -55.450146     -142.616501      -48.444496
 C         -54.524693     -142.503281      -49.596878
 H         -51.843674     -144.214737      -48.063145
 H         -51.946056     -142.350204      -48.136368
 H         -55.367947     -142.518845      -46.130817
 H         -54.200005     -141.483795      -47.015671
 H         -53.703117     -144.521759      -49.732182
 H         -52.583241     -143.322281      -50.359596
 H         -56.179638     -141.817139      -48.514935
 H         -55.857803     -143.687912      -48.416103
 H         -55.300297     -142.607391      -50.467697
 H         -54.229858     -141.389877      -49.574833
