20
 generated by VMD
 C         -38.193436      -98.886330      -27.309366
 N         -37.604866      -98.664558      -26.340534
 H         -36.915009      -96.935837      -29.478100
 H         -38.582729      -99.076996      -28.253622
 C         -35.910496      -96.769440      -29.953119
 C         -35.555656      -97.305450      -31.278011
 C         -34.840641      -95.874420      -29.220865
 C         -34.552284      -96.558952      -32.111794
 C         -34.157696      -94.936478      -30.152201
 C         -33.590752      -95.697746      -31.396198
 H         -36.455784      -97.520180      -31.915680
 H         -35.135220      -98.287170      -31.149952
 H         -35.328827      -95.147606      -28.543558
 H         -34.230927      -96.622841      -28.696541
 H         -35.048744      -95.808678      -32.748535
 H         -33.914326      -97.103165      -32.811558
 H         -33.413231      -94.451752      -29.539780
 H         -34.962730      -94.169754      -30.462132
 H         -33.236820      -94.867912      -32.062740
 H         -32.725864      -96.418587      -31.163383
