20
 generated by VMD
 C         -29.638384      -73.997757      -20.454300
 N         -30.057222      -75.069214      -20.264004
 H         -26.739843      -74.404716      -18.995487
 H         -28.949642      -73.186760      -20.880182
 C         -26.342184      -74.143402      -19.982746
 C         -26.014734      -75.248253      -20.899477
 C         -25.994699      -72.726624      -20.385880
 C         -26.018858      -74.956017      -22.348879
 C         -26.075283      -72.452316      -21.945602
 C         -25.351923      -73.635620      -22.714596
 H         -26.659370      -76.208588      -20.655512
 H         -25.005953      -75.648254      -20.619528
 H         -26.717014      -72.097900      -19.785580
 H         -24.972727      -72.306641      -19.997765
 H         -27.040087      -75.035278      -22.627087
 H         -25.460289      -75.708183      -22.916336
 H         -25.670565      -71.353973      -22.076485
 H         -27.145998      -72.475838      -22.115633
 H         -25.433554      -73.417740      -23.804657
 H         -24.270071      -73.672417      -22.662045
