20
 generated by VMD
 C         -70.712715     -197.081848      -65.083519
 N         -69.863335     -197.623993      -65.629456
 H         -73.279106     -196.692917      -65.903145
 H         -71.324776     -196.431320      -64.445541
 C         -73.380852     -195.819809      -66.517159
 C         -72.969055     -194.419403      -66.251488
 C         -74.397247     -196.069916      -67.672157
 C         -72.609962     -193.548920      -67.455086
 C         -74.707253     -194.784866      -68.438042
 C         -73.477150     -193.904572      -68.663887
 H         -72.148872     -194.396713      -65.502617
 H         -73.760796     -193.923218      -65.844437
 H         -73.869102     -196.737579      -68.388985
 H         -75.299828     -196.592438      -67.262169
 H         -71.521950     -193.605286      -67.670631
 H         -72.811600     -192.493378      -67.113251
 H         -75.518829     -194.360321      -67.849586
 H         -75.190727     -194.953888      -69.410904
 H         -72.876961     -194.595215      -69.080925
 H         -73.717964     -192.949554      -69.314919
