20
 generated by VMD
 C         -55.702976     -149.036423      -45.605446
 N         -55.187160     -149.614456      -44.760483
 H         -54.480186     -148.241226      -48.385777
 H         -56.265156     -148.396576      -46.314880
 C         -54.228825     -147.275436      -48.867168
 C         -53.166115     -147.223694      -49.864906
 C         -54.953125     -146.016342      -48.570358
 C         -53.463276     -146.328445      -51.113129
 C         -55.151653     -145.181122      -49.736126
 C         -53.987339     -145.070618      -50.696575
 H         -53.050911     -148.310486      -50.113106
 H         -52.251080     -146.966171      -49.450951
 H         -55.917927     -146.226364      -48.067165
 H         -54.329723     -145.527924      -47.902679
 H         -54.260948     -146.805130      -51.622776
 H         -52.665096     -146.266983      -51.848007
 H         -55.194210     -144.257080      -49.345352
 H         -56.133240     -145.426422      -50.236965
 H         -54.043270     -144.408035      -51.530632
 H         -53.178905     -144.519028      -50.097511
