20
 generated by VMD
 C         -49.824287     -141.618881      -45.301044
 N         -49.438511     -142.747681      -45.209705
 H         -51.636749     -139.020233      -46.005764
 H         -50.167576     -140.575241      -45.464680
 C         -52.223499     -139.828796      -46.417206
 C         -52.368641     -140.020859      -47.896523
 C         -53.341766     -140.432892      -45.448376
 C         -53.084049     -141.353012      -48.343380
 C         -53.687618     -141.805740      -45.992508
 C         -54.251648     -141.778381      -47.392807
 H         -51.333477     -140.023819      -48.353455
 H         -52.982338     -139.219025      -48.288593
 H         -52.825897     -140.504944      -44.467533
 H         -54.033188     -139.611343      -45.484493
 H         -52.237190     -142.049210      -48.268486
 H         -53.577259     -141.215515      -49.301987
 H         -54.499378     -142.244034      -45.375416
 H         -52.864834     -142.510910      -45.838791
 H         -54.440628     -142.829254      -47.573544
 H         -55.082497     -141.095230      -47.485691
