20
 generated by VMD
 C          -1.204252      -13.039498        1.039365
 N          -0.551277      -12.931575        0.177699
 H          -4.276342      -13.029694        1.626759
 H          -5.690630      -13.276851        0.591610
 C          -5.038393      -13.754443        1.383325
 C          -5.851075      -14.205965        2.570082
 C          -4.346474      -14.982748        0.614983
 C          -6.753873      -15.377839        2.336649
 C          -5.392564      -16.083172        0.421459
 C          -6.086556      -16.555540        1.712209
 H          -6.409869      -13.280869        2.842333
 H          -5.199963      -14.240487        3.492929
 H          -3.874450      -14.584888       -0.353860
 H          -3.477233      -15.245682        1.310747
 H          -7.526853      -15.025474        1.657750
 H          -7.321485      -15.588919        3.233221
 H          -4.833392      -16.919996       -0.006412
 H          -6.118770      -15.814751       -0.311755
 H          -6.828925      -17.374178        1.466754
 H          -5.318596      -17.048540        2.367486
