20
 generated by VMD
 C         -73.847382     -201.559464      -65.345093
 N         -72.877647     -201.059845      -65.731941
 H         -74.953255     -198.050232      -66.728027
 H         -74.722946     -202.074677      -65.127602
 C         -74.729652     -197.614182      -67.721802
 C         -74.856110     -196.133011      -67.963799
 C         -74.282249     -198.424942      -68.920181
 C         -73.489258     -195.624496      -68.570297
 C         -73.602806     -197.596924      -70.032784
 C         -72.687080     -196.511002      -69.375603
 H         -75.181854     -195.709229      -66.940880
 H         -75.553131     -196.061768      -68.708702
 H         -73.569283     -199.228561      -68.570656
 H         -75.165413     -198.888062      -69.493141
 H         -72.878815     -195.463425      -67.664406
 H         -73.663521     -194.648956      -68.976982
 H         -74.262718     -197.240173      -70.815605
 H         -72.935020     -198.263184      -70.630127
 H         -71.865799     -196.901001      -68.898430
 H         -72.194466     -195.807236      -70.146271
