20
 generated by VMD
 C         -31.699604      -75.866730      -23.998711
 N         -31.139412      -76.287567      -24.897705
 H         -29.724031      -78.249962      -22.505913
 H         -32.543427      -75.510788      -23.350965
 C         -28.654833      -78.126869      -22.157530
 C         -27.618759      -78.255066      -23.220463
 C         -28.208899      -78.189163      -20.674160
 C         -26.222029      -77.647461      -22.910610
 C         -26.744921      -77.609306      -20.425043
 C         -25.746033      -78.038292      -21.517059
 H         -27.976713      -78.009933      -24.147280
 H         -27.552591      -79.279488      -23.300865
 H         -28.927788      -77.651955      -19.908281
 H         -28.194702      -79.259155      -20.448044
 H         -26.456154      -76.558769      -22.902082
 H         -25.434725      -77.673119      -23.725052
 H         -26.256546      -77.886101      -19.523619
 H         -26.935963      -76.497559      -20.471380
 H         -24.796141      -77.512444      -21.325529
 H         -25.630024      -79.083557      -21.576206
