20
 generated by VMD
 C         -29.812410      -79.616638      -26.454573
 N         -30.383028      -78.838013      -25.835102
 H         -28.553711      -83.162895      -25.700047
 H         -29.143978      -80.383682      -26.751417
 C         -29.073320      -82.988945      -24.708637
 C         -28.625473      -82.021744      -23.683306
 C         -29.964430      -84.109291      -24.298388
 C         -29.830240      -81.529190      -22.833956
 C         -31.095802      -83.719131      -23.356491
 C         -30.552254      -82.794640      -22.168396
 H         -28.173315      -81.189896      -24.340624
 H         -27.736441      -82.393753      -23.124155
 H         -30.282640      -84.567543      -25.178541
 H         -29.442955      -84.903587      -23.767561
 H         -30.401791      -81.002388      -23.604269
 H         -29.488966      -80.832390      -21.925735
 H         -31.595123      -84.606178      -23.033964
 H         -31.760582      -83.076958      -23.951843
 H         -31.391975      -82.542427      -21.484934
 H         -29.927601      -83.304558      -21.471148
