20
 generated by VMD
 C         -30.830425      -93.756577      -26.058641
 N         -31.167696      -93.723167      -24.951324
 H         -33.617844      -93.415512      -27.380230
 H         -30.659176      -93.803993      -27.189018
 C         -34.161079      -92.908104      -28.119892
 C         -35.657166      -92.848869      -27.973328
 C         -33.380112      -92.370964      -29.246576
 C         -36.139023      -91.437996      -28.554140
 C         -33.856316      -90.949448      -29.568018
 C         -35.353065      -91.035042      -29.849150
 H         -35.925751      -92.573174      -26.953712
 H         -36.142776      -93.660934      -28.480825
 H         -32.297203      -92.410789      -29.014610
 H         -33.380852      -92.928940      -30.237837
 H         -35.964184      -90.641693      -27.727934
 H         -37.250118      -91.485558      -28.642286
 H         -33.357258      -90.531013      -30.532160
 H         -33.601810      -90.228653      -28.807550
 H         -35.898289      -90.216393      -30.203983
 H         -35.504810      -91.828217      -30.472059
