20
 generated by VMD
 C         -38.162251     -109.661697      -36.468426
 N         -37.490330     -108.941429      -35.850933
 H         -40.759712     -111.880257      -37.033360
 H         -38.608692     -110.291397      -37.175114
 C         -41.539902     -111.992096      -36.267994
 C         -42.234268     -113.327629      -36.340412
 C         -41.778538     -111.080269      -35.219219
 C         -42.487629     -113.937698      -34.985550
 C         -42.184410     -111.744591      -33.864525
 C         -43.169571     -112.859634      -34.111538
 H         -41.722919     -114.093307      -36.921162
 H         -43.215435     -113.045372      -36.848953
 H         -40.810669     -110.487457      -35.085541
 H         -42.561337     -110.322868      -35.362514
 H         -41.550488     -114.408844      -34.453754
 H         -43.180260     -114.721565      -35.143906
 H         -42.564083     -110.971756      -33.126801
 H         -41.127991     -112.062721      -33.488670
 H         -43.713337     -113.350288      -33.297455
 H         -43.957062     -112.476486      -34.692535
