20
 generated by VMD
 C         -47.900993     -134.710693      -46.530788
 N         -47.922169     -134.474060      -47.726688
 H         -50.444668     -134.565186      -45.257591
 H         -48.051392     -135.004303      -45.506859
 C         -50.655193     -135.389374      -44.540939
 C         -51.232174     -136.642502      -45.290096
 C         -51.146969     -135.234375      -43.126183
 C         -51.164913     -137.918015      -44.372604
 C         -51.055679     -136.515976      -42.318279
 C         -51.706192     -137.734253      -42.999969
 H         -50.588017     -136.730423      -46.121590
 H         -52.213459     -136.218506      -45.664238
 H         -50.651272     -134.270157      -42.707741
 H         -52.259048     -135.082932      -43.199059
 H         -50.065418     -138.142548      -44.308701
 H         -51.701702     -138.765427      -44.839329
 H         -51.397224     -136.422379      -41.347466
 H         -50.020351     -136.761169      -42.183186
 H         -51.695778     -138.658981      -42.213642
 H         -52.884315     -137.605759      -43.005577
