20
 generated by VMD
 C         -77.374847     -202.921158      -69.368729
 N         -77.647285     -203.747452      -68.565025
 H         -75.086060     -201.913269      -67.162262
 H         -77.184296     -202.176086      -70.130417
 C         -74.732544     -201.358078      -67.996223
 C         -75.175514     -200.029922      -68.490479
 C         -73.895569     -202.176422      -68.906952
 C         -74.637741     -199.526047      -69.877747
 C         -73.253540     -201.548508      -70.027718
 C         -74.146286     -200.592239      -70.844551
 H         -75.025276     -199.225922      -67.703285
 H         -76.226814     -200.083130      -68.523201
 H         -73.174774     -202.546280      -68.234283
 H         -74.555290     -202.960876      -69.295349
 H         -73.755310     -198.861298      -69.760658
 H         -75.495949     -198.972656      -70.360260
 H         -72.847664     -202.363785      -70.655014
 H         -72.307716     -201.163300      -69.611176
 H         -73.457832     -200.014877      -71.585449
 H         -74.943924     -201.020615      -71.397499
