20
 generated by VMD
 C         -68.543236     -185.477692      -66.653717
 N         -67.814117     -186.275574      -67.083221
 H         -69.624779     -183.623611      -63.766350
 H         -69.162430     -184.736694      -66.232567
 C         -69.526276     -184.454987      -63.151665
 C         -70.743744     -185.017426      -62.544537
 C         -68.314240     -185.388672      -63.108490
 C         -70.489441     -185.587296      -61.126873
 C         -67.992119     -186.072250      -61.797054
 C         -69.266548     -186.672913      -61.160034
 H         -71.131454     -185.878143      -63.146851
 H         -71.621887     -184.371338      -62.540577
 H         -68.588470     -185.926865      -64.059776
 H         -67.461052     -184.743683      -63.292686
 H         -71.310997     -186.145767      -60.693920
 H         -70.314201     -184.776535      -60.475708
 H         -67.626328     -185.288269      -61.090771
 H         -67.207062     -186.873718      -61.823757
 H         -69.626335     -187.671936      -61.575779
 H         -69.215523     -186.810318      -60.001945
