20
 generated by VMD
 C         -60.385986     -170.291351      -55.121880
 N         -59.229961     -170.317200      -55.402382
 H         -63.103218     -170.560776      -56.437813
 H         -61.398705     -170.210098      -54.761463
 C         -63.361870     -169.615845      -56.914146
 C         -62.377621     -168.995529      -57.914322
 C         -64.421379     -168.805527      -56.239922
 C         -62.973454     -167.880585      -58.801838
 C         -65.060417     -167.681351      -57.118416
 C         -63.913681     -166.983749      -57.937584
 H         -61.785091     -169.858002      -58.426029
 H         -61.706696     -168.528900      -57.312584
 H         -65.228134     -169.364029      -55.770210
 H         -63.968502     -168.236420      -55.412769
 H         -63.464996     -168.516876      -59.603127
 H         -62.158634     -167.199036      -59.243279
 H         -65.549026     -166.990875      -56.455444
 H         -65.866684     -168.013138      -57.721684
 H         -64.421997     -166.219543      -58.544159
 H         -63.191162     -166.559494      -57.221119
