20
 generated by VMD
 C         -65.198318     -175.992935      -55.838894
 N         -65.019722     -177.146774      -55.735607
 H         -65.044838     -174.622253      -59.502819
 H         -65.233192     -174.910507      -55.996902
 C         -64.490593     -173.653305      -59.264999
 C         -65.276337     -172.647797      -58.572586
 C         -63.836937     -173.214767      -60.459114
 C         -64.521408     -171.233078      -58.498585
 C         -63.078148     -171.947037      -60.464661
 C         -64.068550     -170.794968      -60.026867
 H         -65.547997     -173.006836      -57.508018
 H         -66.199753     -172.577408      -59.075558
 H         -63.122658     -173.945343      -60.761570
 H         -64.539955     -173.295303      -61.362045
 H         -63.696358     -171.293869      -57.744995
 H         -65.245529     -170.432709      -58.216805
 H         -62.602551     -171.783661      -61.398411
 H         -62.178993     -171.959625      -59.797119
 H         -63.627007     -169.810501      -59.962029
 H         -65.011093     -170.651291      -60.655659
