20
 generated by VMD
 C         -27.641756      -86.713982      -26.729023
 N         -28.302404      -85.742058      -26.525696
 H         -31.038382      -85.992233      -25.304001
 H         -26.958742      -87.515953      -26.785902
 C         -31.818218      -86.632515      -25.528383
 C         -32.759918      -86.902473      -24.513506
 C         -32.038830      -87.173904      -26.906141
 C         -34.111462      -87.419281      -24.844982
 C         -33.549858      -87.435616      -27.286535
 C         -34.212185      -88.243919      -26.174383
 H         -32.795021      -86.006660      -23.874283
 H         -32.245266      -87.559059      -23.878477
 H         -31.576319      -86.507164      -27.622854
 H         -31.483604      -88.174957      -27.032946
 H         -34.872532      -86.698677      -25.090862
 H         -34.450031      -88.222504      -24.090199
 H         -33.485302      -87.980812      -28.221424
 H         -34.071198      -86.515327      -27.407101
 H         -35.183361      -88.545288      -26.536480
 H         -33.727840      -89.151100      -25.942951
