20
 generated by VMD
 C         -12.056279      -41.513046       -7.572802
 N         -11.672997      -40.729454       -6.868271
 H         -13.900229      -40.730362       -8.397248
 H         -15.183639      -40.134159       -9.380492
 C         -14.829416      -41.068867       -8.946978
 C         -15.960137      -41.738503       -8.196812
 C         -14.248298      -42.008629       -9.995274
 C         -17.103998      -42.183910       -9.075534
 C         -15.310433      -42.543674      -10.982715
 C         -16.496021      -43.122299      -10.133490
 H         -16.252876      -41.081810       -7.368126
 H         -15.470247      -42.619873       -7.683693
 H         -13.490416      -41.487015      -10.619443
 H         -13.765471      -42.863148       -9.476368
 H         -17.481142      -41.330078       -9.686551
 H         -17.852560      -42.699322       -8.493248
 H         -14.977977      -43.274982      -11.648781
 H         -15.698120      -41.699486      -11.610670
 H         -17.309172      -43.419418      -10.766099
 H         -16.136787      -44.061897       -9.721563
