20
 generated by VMD
 C         -43.243603     -121.031868      -35.545948
 N         -42.877457     -120.707268      -34.472267
 H         -44.189911     -121.629669      -38.738541
 H         -43.801319     -121.150459      -36.458790
 C         -44.159786     -120.520508      -38.752529
 C         -43.127197     -119.871773      -39.606369
 C         -45.364857     -119.777771      -38.334148
 C         -43.811554     -118.994431      -40.747997
 C         -45.930569     -118.769722      -39.328571
 C         -44.775490     -118.063377      -40.066612
 H         -42.629692     -120.688881      -40.164906
 H         -42.368359     -119.142311      -39.109516
 H         -46.252335     -120.333511      -38.093853
 H         -45.225044     -119.187622      -37.413715
 H         -44.452656     -119.499077      -41.565681
 H         -42.971062     -118.495644      -41.187042
 H         -46.509136     -117.989639      -38.862049
 H         -46.378578     -119.291534      -40.140102
 H         -45.091328     -117.490646      -40.899372
 H         -44.187927     -117.533699      -39.312706
