20
 generated by VMD
 C         -79.164108     -205.756210      -74.019295
 N         -79.203156     -206.866043      -73.591873
 H         -78.647858     -206.046066      -70.354057
 H         -79.376404     -204.833008      -74.547386
 C         -77.622215     -206.355682      -70.469727
 C         -76.750603     -205.504669      -71.367355
 C         -77.223846     -207.699844      -69.882019
 C         -75.372734     -205.492310      -70.738342
 C         -75.863739     -207.430756      -69.225082
 C         -74.841049     -206.773911      -70.180244
 H         -77.263962     -204.532196      -71.565826
 H         -76.732735     -205.976166      -72.327370
 H         -78.035515     -207.916840      -69.214340
 H         -77.147484     -208.571716      -70.583282
 H         -75.397217     -204.714050      -69.976761
 H         -74.752861     -205.096924      -71.567299
 H         -75.463348     -208.423309      -68.841293
 H         -75.935959     -206.762939      -68.330101
 H         -73.841316     -206.776855      -69.645432
 H         -74.776482     -207.329636      -71.114388
