20
 generated by VMD
 C         -31.243940      -79.517044      -26.320827
 N         -30.862429      -78.412682      -26.357637
 H         -28.910067      -81.017624      -25.404396
 H         -31.698513      -80.497253      -25.928106
 C         -28.883018      -81.685822      -24.492790
 C         -27.774101      -81.572769      -23.445065
 C         -29.903141      -82.683624      -24.212412
 C         -28.462143      -81.262909      -21.989994
 C         -30.527542      -82.400681      -22.845396
 C         -29.523392      -82.375648      -21.638693
 H         -27.054131      -80.784744      -23.584637
 H         -27.335939      -82.549721      -23.299612
 H         -30.648212      -82.682083      -24.996773
 H         -29.478003      -83.738625      -24.097679
 H         -28.821333      -80.263237      -22.097517
 H         -27.845392      -81.333229      -21.036793
 H         -31.303598      -83.111069      -22.472368
 H         -30.979792      -81.425880      -22.918251
 H         -30.006306      -82.084671      -20.711292
 H         -29.089296      -83.320679      -21.554953
