20
 generated by VMD
 C         -38.537296     -108.056015      -36.802925
 N         -38.078053     -108.747383      -37.636551
 H         -41.270210     -108.920891      -35.740479
 H         -38.709476     -107.406303      -35.972836
 C         -41.292854     -109.775291      -34.992546
 C         -40.537598     -110.942474      -35.218788
 C         -42.408516     -109.850334      -34.094238
 C         -40.188992     -111.859352      -34.044914
 C         -42.163357     -110.662903      -32.849628
 C         -41.532879     -112.044968      -33.176037
 H         -39.611145     -110.902512      -35.801022
 H         -41.157207     -111.646980      -35.868515
 H         -42.842468     -108.865601      -33.849930
 H         -43.190029     -110.377296      -34.585167
 H         -39.351044     -111.492737      -33.487431
 H         -39.724533     -112.803955      -34.570705
 H         -43.167011     -110.986404      -32.430897
 H         -41.599072     -110.000404      -32.169945
 H         -41.239891     -112.611984      -32.196056
 H         -42.257172     -112.552147      -33.814537
