20
 generated by VMD
 C         -50.456337     -131.874863      -47.066593
 N         -49.989666     -132.246353      -48.060093
 H         -48.763752     -131.405746      -43.611805
 H         -51.039856     -131.432861      -46.280449
 C         -48.732700     -132.277252      -42.966663
 C         -49.478550     -133.479507      -43.539761
 C         -48.513020     -132.124008      -41.481960
 C         -49.113262     -134.758621      -42.758465
 C         -48.355488     -133.396713      -40.799267
 C         -49.295792     -134.551819      -41.276234
 H         -49.239082     -133.518631      -44.600292
 H         -50.660400     -133.359131      -43.470608
 H         -47.697117     -131.443176      -41.324490
 H         -49.507965     -131.811508      -41.108253
 H         -48.089725     -135.004181      -43.053440
 H         -49.679790     -135.654099      -43.135017
 H         -48.464603     -133.472809      -39.693726
 H         -47.354576     -133.829163      -40.953552
 H         -48.968441     -135.493134      -40.669125
 H         -50.253361     -134.139099      -41.020489
