20
 generated by VMD
 C         -45.472260     -123.376190      -35.414082
 N         -45.985622     -124.386559      -35.330517
 H         -45.198177     -122.588089      -38.604824
 H         -44.854805     -122.439140      -35.562378
 C         -44.792244     -121.713806      -39.185097
 C         -43.439259     -121.316689      -39.588833
 C         -45.797577     -120.640579      -39.464874
 C         -43.439114     -121.001762      -41.125320
 C         -45.825542     -120.380470      -40.982971
 C         -44.425491     -119.939438      -41.420319
 H         -42.689140     -122.010361      -39.276546
 H         -43.045292     -120.409973      -38.969940
 H         -46.851681     -120.745628      -39.147255
 H         -45.377438     -119.793159      -38.862911
 H         -43.388607     -121.815567      -41.884865
 H         -42.442219     -120.624008      -41.372761
 H         -46.550087     -119.647400      -41.146317
 H         -46.005787     -121.282944      -41.586376
 H         -44.469322     -119.959625      -42.522129
 H         -44.059216     -119.015541      -40.998917
