20
 generated by VMD
 C         -28.942167      -81.444221      -27.648649
 N         -29.753450      -80.612885      -27.501968
 H         -29.157270      -82.169518      -23.918385
 H         -28.206892      -82.123672      -27.893305
 C         -29.610212      -83.157890      -23.834225
 C         -29.803867      -83.898689      -22.585827
 C         -30.122038      -83.932213      -24.992620
 C         -31.277948      -83.915436      -22.363819
 C         -31.594252      -84.256912      -24.880930
 C         -32.064602      -84.742920      -23.453152
 H         -29.270224      -83.417725      -21.753906
 H         -29.422457      -84.884109      -22.552931
 H         -29.927330      -83.533440      -25.955242
 H         -29.520920      -84.818779      -24.920998
 H         -31.786180      -83.007294      -22.120554
 H         -31.343193      -84.477264      -21.257418
 H         -31.662039      -85.059990      -25.683062
 H         -32.137699      -83.413406      -25.189842
 H         -33.129528      -84.728157      -23.296108
 H         -31.676754      -85.754921      -23.457029
