20
 generated by VMD
 C         -39.500145      -99.153915      -28.186533
 N         -38.775269      -99.958344      -27.830616
 H         -37.413990      -97.871437      -30.665039
 H         -39.978485      -98.281952      -28.654951
 C         -36.384701      -97.924194      -30.788511
 C         -35.675259      -98.576530      -32.049362
 C         -35.594273      -97.677208      -29.542265
 C         -34.547310      -97.655144      -32.389122
 C         -34.306866      -96.863312      -29.913395
 C         -33.641624      -97.312256      -31.130886
 H         -36.343597      -98.875023      -32.847839
 H         -35.280708      -99.545998      -31.620949
 H         -36.279041      -97.083824      -28.871552
 H         -35.412891      -98.674515      -29.022045
 H         -35.021706      -96.684090      -32.735268
 H         -34.019787      -98.003212      -33.296986
 H         -33.557381      -96.916008      -29.031872
 H         -34.401958      -95.786545      -30.167257
 H         -32.964954      -96.451515      -31.428036
 H         -33.021599      -98.164032      -30.964537
