20
 generated by VMD
 C         -59.584049     -152.151321      -50.721973
 N         -59.326653     -153.029785      -50.023903
 H         -56.754921     -151.216644      -48.578674
 H         -59.931332     -151.302505      -51.280766
 C         -55.905746     -150.856918      -49.166161
 C         -55.011414     -151.910873      -49.855305
 C         -55.490181     -149.459778      -49.252911
 C         -54.487186     -151.523712      -51.181396
 C         -54.847130     -149.194397      -50.555412
 C         -53.750561     -150.283981      -50.986591
 H         -55.775780     -152.741776      -50.092396
 H         -54.251225     -152.301483      -49.185070
 H         -56.169533     -148.698700      -48.983063
 H         -54.635788     -149.417084      -48.561234
 H         -55.294144     -151.393082      -51.907871
 H         -53.810551     -152.303070      -51.623608
 H         -54.340515     -148.279083      -50.679409
 H         -55.706318     -149.205170      -51.361698
 H         -53.458057     -149.875320      -51.903191
 H         -52.971195     -150.264893      -50.102970
