20
 generated by VMD
 C         -22.528095      -55.233753      -17.203321
 N         -23.014694      -54.661381      -18.143711
 H         -20.458731      -55.920265      -14.460166
 H         -21.819977      -55.835938      -16.420610
 C         -20.295332      -57.054047      -14.308610
 C         -20.707525      -57.750072      -13.057503
 C         -19.284370      -57.807446      -15.058041
 C         -20.888359      -59.201252      -13.102972
 C         -19.429279      -59.317352      -15.142755
 C         -19.783623      -59.936714      -13.864492
 H         -21.646275      -57.289650      -12.751677
 H         -20.109238      -57.437092      -12.178787
 H         -19.352896      -57.563019      -16.162390
 H         -18.391699      -57.365688      -14.722055
 H         -21.894293      -59.451347      -13.517452
 H         -20.851992      -59.707443      -12.113258
 H         -18.489769      -59.712265      -15.566558
 H         -20.212505      -59.647190      -15.830000
 H         -20.133503      -60.988937      -13.885512
 H         -18.855017      -59.966881      -13.203373
