20
 generated by VMD
 C         -62.640564     -172.168533      -55.184357
 N         -61.812069     -172.970184      -55.350048
 H         -61.653530     -171.166122      -57.972996
 H         -63.325401     -171.355667      -55.229439
 C         -62.450352     -170.478485      -58.246510
 C         -62.353012     -169.084961      -58.065437
 C         -63.720978     -171.179276      -58.517185
 C         -63.613823     -168.248795      -58.285549
 C         -64.987000     -170.202118      -58.736950
 C         -64.966026     -168.942917      -57.827572
 H         -61.461243     -168.691635      -58.694077
 H         -62.039551     -168.951096      -57.066883
 H         -63.534866     -171.829803      -59.409664
 H         -64.049911     -171.958450      -57.654766
 H         -63.726662     -167.837006      -59.304619
 H         -63.527260     -167.402161      -57.664398
 H         -65.893585     -170.740387      -58.525921
 H         -65.120636     -169.933044      -59.754498
 H         -65.855209     -168.271164      -57.897095
 H         -64.787704     -169.213074      -56.696491
