20
 generated by VMD
 C         -58.024494     -166.468735      -56.240715
 N         -58.250340     -167.224716      -55.373699
 H         -60.608566     -165.636200      -54.775810
 H         -57.802395     -165.785278      -57.019798
 C         -61.460312     -165.579834      -55.422348
 C         -61.827621     -166.805115      -56.203510
 C         -62.487930     -164.465790      -55.557972
 C         -63.294910     -167.211838      -56.351185
 C         -63.881077     -164.953674      -55.528923
 C         -64.205704     -166.024750      -56.514271
 H         -61.219917     -167.743423      -55.989986
 H         -61.488579     -166.712402      -57.294296
 H         -62.354980     -163.672958      -54.855900
 H         -62.267429     -164.107132      -56.607319
 H         -63.517670     -167.772812      -55.440262
 H         -63.339439     -167.823227      -57.309887
 H         -64.491989     -164.143433      -55.829033
 H         -64.277710     -165.163284      -54.399452
 H         -65.266617     -166.303864      -56.507668
 H         -64.052467     -165.707458      -57.536541
