20
 generated by VMD
 C         -61.152950     -156.062164      -54.657513
 N         -60.595444     -156.050476      -55.628017
 H         -59.421406     -155.572601      -51.606705
 H         -61.586464     -156.179337      -53.711357
 C         -58.435486     -155.903183      -51.307446
 C         -57.598938     -154.799393      -50.744404
 C         -57.813782     -157.015533      -52.169247
 C         -56.342644     -155.436630      -50.121738
 C         -56.358135     -157.429062      -51.630970
 C         -55.517712     -156.240875      -51.119621
 H         -58.147995     -154.308487      -49.910549
 H         -57.415478     -154.175568      -51.549259
 H         -58.422890     -158.032700      -52.313744
 H         -57.670067     -156.572586      -53.194664
 H         -56.460320     -155.927658      -49.093967
 H         -55.798176     -154.452682      -49.753063
 H         -55.726589     -158.156998      -52.300026
 H         -56.519661     -158.045074      -50.768623
 H         -54.591656     -156.605911      -50.554394
 H         -55.169430     -155.573578      -51.902481
