20
 generated by VMD
 C         -20.401489      -56.327675      -16.736837
 N         -21.385687      -56.034496      -17.211187
 H         -22.823429      -58.622593      -16.552208
 H         -19.343346      -56.759212      -16.699909
 C         -22.197123      -59.371223      -16.059828
 C         -22.407278      -59.222794      -14.593317
 C         -21.694197      -60.754208      -16.594944
 C         -21.123255      -59.652069      -13.889550
 C         -20.783743      -61.569675      -15.605747
 C         -20.820509      -61.213875      -14.138853
 H         -23.376343      -59.754963      -14.303134
 H         -22.577011      -58.211090      -14.251224
 H         -22.533934      -61.396996      -16.726486
 H         -21.181887      -60.665527      -17.523890
 H         -21.338898      -59.475407      -12.814557
 H         -20.244694      -59.045315      -13.979064
 H         -19.725494      -61.575649      -15.824464
 H         -20.909216      -62.643322      -15.760864
 H         -21.578934      -61.858963      -13.614996
 H         -19.823296      -61.438190      -13.764537
