20
 generated by VMD
 C         -38.490391     -113.150185      -36.401165
 N         -37.325401     -113.112549      -36.205853
 H         -41.402081     -114.796890      -34.848473
 H         -39.523037     -113.125710      -36.699615
 C         -42.263706     -114.747147      -35.476040
 C         -42.179962     -114.562851      -37.050991
 C         -43.460068     -114.231880      -34.859669
 C         -43.376118     -115.110085      -37.737423
 C         -44.843948     -114.602844      -35.673470
 C         -44.608944     -114.279945      -37.178093
 H         -41.297596     -115.155319      -37.200806
 H         -41.837933     -113.543152      -37.117096
 H         -43.589081     -114.569977      -33.841339
 H         -43.444695     -113.139565      -34.793121
 H         -43.464939     -116.141266      -37.463207
 H         -43.248276     -115.041893      -38.853909
 H         -45.731632     -114.005676      -35.426800
 H         -45.042255     -115.612595      -35.395725
 H         -45.476944     -114.529243      -37.616947
 H         -44.363155     -113.215576      -37.227703
