20
 generated by VMD
 C         -12.394887      -31.608757       -8.901730
 N         -12.510489      -30.706858       -8.295107
 H         -10.681791      -34.892323       -7.659748
 H         -11.711916      -33.776241       -6.688632
 C         -11.206333      -34.791065       -6.721052
 C         -10.357991      -34.937817       -5.467658
 C         -12.292456      -35.887016       -6.625070
 C         -11.138559      -34.765984       -4.212375
 C         -13.199322      -35.852859       -5.331911
 C         -12.247097      -35.807518       -4.110237
 H          -9.549022      -34.155682       -5.527703
 H          -9.956712      -35.942223       -5.438132
 H         -12.925828      -35.800018       -7.528523
 H         -11.818934      -36.887077       -6.600466
 H         -11.668013      -33.802513       -4.236844
 H         -10.444197      -34.896584       -3.323378
 H         -13.966851      -36.715385       -5.249205
 H         -13.717788      -34.885525       -5.318477
 H         -12.798756      -35.742825       -3.156895
 H         -11.777487      -36.758003       -4.069931
