20
 generated by VMD
 C         -48.440182     -135.623169      -46.241833
 N         -47.252689     -135.413086      -46.267635
 H         -51.941799     -134.996613      -45.884930
 H         -49.494766     -135.870270      -46.436127
 C         -51.744705     -135.636047      -45.036255
 C         -52.246468     -136.945755      -45.499657
 C         -51.250046     -135.474533      -43.647678
 C         -51.470779     -138.166412      -44.933662
 C         -50.562080     -136.748535      -43.051266
 C         -51.209774     -138.085159      -43.420986
 H         -52.045696     -136.887619      -46.565830
 H         -53.351185     -136.969391      -45.371780
 H         -50.626263     -134.587509      -43.442852
 H         -52.036011     -135.412277      -42.985313
 H         -50.554955     -138.171875      -45.526539
 H         -51.932377     -139.139099      -45.256573
 H         -50.332363     -136.692459      -41.978062
 H         -49.561386     -136.818741      -43.568413
 H         -50.513840     -138.872940      -43.148556
 H         -52.305042     -138.149063      -42.831738
