20
 generated by VMD
 C         -33.722885      -96.111549      -25.265263
 N         -33.271740      -97.168716      -25.523207
 H         -34.673187      -94.120033      -27.468788
 H         -33.993984      -95.175217      -24.828140
 C         -34.774899      -93.707619      -28.450186
 C         -36.024811      -94.081863      -29.196968
 C         -33.523132      -93.484985      -29.143988
 C         -36.181530      -93.260391      -30.498444
 C         -33.807877      -92.574516      -30.382929
 C         -34.907642      -93.306328      -31.363420
 H         -36.886047      -93.811615      -28.640602
 H         -35.989803      -95.210114      -29.258162
 H         -32.930786      -92.914650      -28.475534
 H         -32.994419      -94.363632      -29.529692
 H         -36.520439      -92.240349      -30.316570
 H         -36.856133      -93.736847      -31.220125
 H         -32.869019      -92.320915      -30.765690
 H         -34.295296      -91.545212      -30.146151
 H         -34.881580      -92.699814      -32.240738
 H         -34.675976      -94.235428      -31.665941
