20
 generated by VMD
 C         -49.595409     -127.733597      -40.197376
 N         -50.556183     -127.713150      -40.816071
 H         -47.494419     -127.397675      -42.023365
 H         -48.830402     -127.729858      -39.457684
 C         -46.705166     -126.767654      -41.476692
 C         -45.846020     -127.274300      -40.344498
 C         -46.837723     -125.230240      -41.613785
 C         -44.453701     -126.659447      -40.475544
 C         -45.441994     -124.668114      -41.729321
 C         -44.463909     -125.149605      -40.741199
 H         -45.793629     -128.396240      -40.441837
 H         -46.353046     -127.068855      -39.439548
 H         -47.365669     -125.031319      -42.552223
 H         -47.236473     -124.845123      -40.536060
 H         -43.935646     -127.047302      -41.366875
 H         -43.850563     -126.903053      -39.600788
 H         -45.579697     -123.594437      -41.748505
 H         -45.011581     -124.911247      -42.701759
 H         -43.473854     -124.758682      -41.087677
 H         -44.627819     -124.710159      -39.708805
