20
 generated by VMD
 C         -70.313057     -183.480911      -66.249336
 N         -69.220703     -183.200195      -66.034790
 H         -69.046768     -184.764252      -62.981964
 H         -71.319427     -183.663361      -66.430229
 C         -68.280090     -184.325684      -62.325260
 C         -68.478989     -184.782471      -60.952209
 C         -67.921783     -182.942688      -62.627289
 C         -67.541664     -184.119995      -60.037338
 C         -66.947380     -182.249725      -61.605598
 C         -67.483604     -182.551193      -60.210953
 H         -68.368233     -185.867432      -60.740204
 H         -69.510803     -184.628311      -60.735210
 H         -67.552238     -182.736038      -63.612488
 H         -69.004372     -182.511612      -62.540775
 H         -66.486588     -184.444260      -60.190491
 H         -67.749008     -184.209778      -59.006859
 H         -66.981071     -181.152481      -61.691399
 H         -65.986046     -182.582993      -61.907635
 H         -66.935631     -182.000687      -59.440887
 H         -68.565369     -182.152130      -59.937290
