20
 generated by VMD
 C         -79.698761     -206.853073      -74.130112
 N         -80.507713     -207.327301      -74.853279
 H         -76.543152     -207.603699      -73.200684
 H         -79.024475     -206.499603      -73.303757
 C         -76.618073     -207.540756      -72.163864
 C         -75.394196     -207.362610      -71.398926
 C         -77.656693     -208.463211      -71.572319
 C         -75.680992     -207.000641      -69.934219
 C         -77.722839     -208.636673      -69.983963
 C         -76.394203     -208.160095      -69.266502
 H         -74.812210     -206.637833      -72.058517
 H         -74.813568     -208.275604      -71.264488
 H         -78.661392     -208.207932      -71.892967
 H         -77.508080     -209.480453      -72.024704
 H         -76.168198     -206.035568      -69.893173
 H         -74.692863     -206.926529      -69.439461
 H         -77.913170     -209.613861      -69.524246
 H         -78.484253     -207.971619      -69.620308
 H         -76.707932     -208.062851      -68.154701
 H         -75.730255     -209.042953      -69.069603
