20
 generated by VMD
 C         -72.666641     -199.232681      -65.443657
 N         -71.875107     -199.682816      -64.736656
 H         -71.140755     -196.044495      -67.190926
 H         -73.477417     -199.063034      -66.129173
 C         -72.082809     -195.722672      -67.651047
 C         -72.762421     -194.449295      -67.157852
 C         -72.650925     -196.390991      -68.872604
 C         -74.144951     -194.228531      -67.920502
 C         -74.193474     -196.535248      -68.937057
 C         -74.984825     -195.521454      -68.156006
 H         -72.027153     -193.717133      -67.381996
 H         -73.114922     -194.423370      -66.107635
 H         -72.219025     -195.873932      -69.694801
 H         -72.299095     -197.415756      -68.929459
 H         -74.053169     -193.727341      -68.937393
 H         -74.812157     -193.728821      -67.240089
 H         -74.358383     -197.506012      -68.523804
 H         -74.535568     -196.574112      -70.010750
 H         -75.702431     -195.360825      -68.843971
 H         -75.245598     -195.994690      -67.114738
