20
 generated by VMD
 C         -56.096321     -149.959396      -47.522602
 N         -57.088436     -150.214478      -47.036045
 H         -53.237896     -147.836746      -47.362225
 H         -55.237507     -149.530502      -47.970943
 C         -53.771366     -147.784958      -48.323017
 C         -53.163475     -148.461868      -49.616394
 C         -54.673698     -146.495193      -48.412529
 C         -54.124218     -148.269150      -50.813713
 C         -55.441368     -146.373825      -49.798878
 C         -54.878143     -147.000107      -51.077759
 H         -53.022293     -149.550369      -49.226967
 H         -52.133663     -148.248337      -49.792027
 H         -55.513329     -146.194885      -47.694706
 H         -53.965008     -145.656097      -48.324005
 H         -54.893524     -149.041214      -50.631359
 H         -53.643467     -148.716949      -51.715076
 H         -55.661880     -145.276047      -49.937927
 H         -56.363503     -146.819717      -49.712929
 H         -55.573944     -147.130600      -51.961910
 H         -54.100407     -146.344193      -51.496056
