20
 generated by VMD
 C         -66.672493     -189.666458      -66.571968
 N         -66.230019     -189.357224      -67.619125
 H         -70.441643     -190.302917      -65.607964
 H         -66.878845     -189.879761      -65.505432
 C         -70.807198     -190.033112      -64.617447
 C         -71.940842     -190.855087      -64.109535
 C         -70.450401     -188.710663      -64.039803
 C         -73.205536     -189.927490      -63.993881
 C         -71.647736     -187.825882      -63.721386
 C         -72.866020     -188.632919      -63.116711
 H         -71.552284     -191.339432      -63.197559
 H         -72.144890     -191.591385      -64.853989
 H         -69.767227     -188.750229      -63.142838
 H         -69.856987     -188.206787      -64.798012
 H         -74.130463     -190.437881      -63.761707
 H         -73.475410     -189.547882      -65.020561
 H         -72.018326     -187.403595      -64.673691
 H         -71.284538     -186.948013      -63.219044
 H         -72.676720     -188.923431      -61.997177
 H         -73.699532     -187.976883      -63.220272
