20
 generated by VMD
 C         -70.336815     -183.401581      -66.248619
 N         -69.248993     -183.116943      -66.012169
 H         -68.558411     -185.121674      -63.146538
 H         -71.295578     -183.701950      -66.503685
 C         -68.331146     -184.387283      -62.357079
 C         -68.443306     -184.755478      -60.872799
 C         -67.887466     -182.925125      -62.651665
 C         -67.360283     -184.017258      -59.945263
 C         -67.051331     -182.218140      -61.605831
 C         -67.532013     -182.509644      -60.223698
 H         -68.327217     -185.833878      -60.694817
 H         -69.470055     -184.557922      -60.410217
 H         -67.337395     -183.032150      -63.621853
 H         -68.689926     -182.331467      -62.954109
 H         -66.337280     -184.345200      -60.133949
 H         -67.564743     -184.293716      -58.856697
 H         -66.909164     -181.125824      -61.784782
 H         -65.937195     -182.427933      -61.616734
 H         -66.978378     -181.905075      -59.443802
 H         -68.535065     -182.168259      -60.131275
