20
 generated by VMD
 C         -43.476089     -121.158157      -36.065632
 N         -43.564793     -120.542503      -35.096107
 H         -44.911644     -122.394264      -39.503517
 H         -43.171398     -121.690742      -36.921448
 C         -44.742317     -121.239037      -39.437187
 C         -43.391315     -120.746429      -39.728264
 C         -45.852428     -120.459320      -38.827858
 C         -43.355572     -119.266953      -40.191345
 C         -45.860397     -118.992416      -39.353832
 C         -44.351276     -118.453606      -39.453430
 H         -42.752098     -121.426842      -40.286308
 H         -42.824978     -120.789551      -38.795918
 H         -46.820057     -120.821861      -39.173870
 H         -45.843296     -120.497681      -37.779774
 H         -43.721882     -119.308670      -41.271927
 H         -42.347256     -118.779961      -40.242085
 H         -46.443192     -118.228973      -38.783039
 H         -46.374451     -119.096802      -40.424824
 H         -44.358345     -117.450310      -39.933056
 H         -43.904934     -118.224945      -38.410980
