20
 generated by VMD
 C         -30.556738      -75.792191      -22.884979
 N         -30.899996      -75.291351      -23.868050
 H         -28.730406      -78.936195      -21.320986
 H         -29.977976      -76.471001      -22.358608
 C         -28.119907      -78.114342      -21.589687
 C         -27.227968      -78.252205      -22.837517
 C         -27.574717      -77.375259      -20.362436
 C         -26.682999      -76.799049      -23.188913
 C         -26.886889      -76.116623      -20.815205
 C         -25.913658      -76.344604      -21.958170
 H         -27.780977      -78.621414      -23.639256
 H         -26.473574      -78.920830      -22.713930
 H         -28.358358      -77.181206      -19.640779
 H         -26.864363      -78.049370      -19.845497
 H         -27.497768      -76.150627      -23.541210
 H         -25.892702      -76.851379      -23.948915
 H         -26.333189      -75.805336      -19.901073
 H         -27.718203      -75.299652      -20.998905
 H         -25.506861      -75.370110      -22.229540
 H         -24.892401      -76.856247      -21.722889
