20
 generated by VMD
 C         -65.111061     -175.864990      -55.824345
 N         -64.867134     -176.984970      -55.892696
 H         -64.272491     -174.447937      -58.617451
 H         -65.443275     -174.845062      -55.753464
 C         -64.561401     -173.604797      -59.182709
 C         -65.353706     -172.476654      -58.593487
 C         -63.824135     -173.374084      -60.501770
 C         -64.538063     -171.181473      -58.517120
 C         -63.166519     -171.943954      -60.427021
 C         -63.977646     -170.803543      -59.820755
 H         -65.734367     -172.741364      -57.491188
 H         -66.251060     -172.444214      -59.171722
 H         -62.972717     -174.075378      -60.687035
 H         -64.497406     -173.542191      -61.436810
 H         -63.739166     -171.432495      -57.862411
 H         -65.071289     -170.310776      -58.145100
 H         -62.977673     -171.571304      -61.455845
 H         -62.138412     -171.991806      -60.044056
 H         -63.403610     -169.872971      -59.633518
 H         -64.834885     -170.520493      -60.490246
