20
 generated by VMD
 C         -11.824511      -25.773550       -0.873483
 N         -12.107199      -25.297104        0.087152
 H          -8.124945      -26.495245       -1.383633
 H          -9.176474      -25.822596       -2.663061
 C          -8.164446      -25.929312       -2.366191
 C          -7.395357      -26.684206       -3.490578
 C          -7.574948      -24.466787       -2.139295
 C          -7.259242      -25.911514       -4.800793
 C          -7.446720      -23.731831       -3.510775
 C          -6.611741      -24.544973       -4.540233
 H          -7.877354      -27.682570       -3.754786
 H          -6.394640      -26.952900       -3.101534
 H          -8.136764      -23.955057       -1.399321
 H          -6.557023      -24.592869       -1.671478
 H          -8.228446      -25.688993       -5.237455
 H          -6.687917      -26.538818       -5.494965
 H          -6.923267      -22.776949       -3.373481
 H          -8.460379      -23.602442       -3.870779
 H          -6.495456      -24.036758       -5.493497
 H          -5.680158      -24.687353       -3.941212
