20
 generated by VMD
 C         -50.530437     -129.207626      -43.912472
 N         -50.905266     -130.134644      -44.433670
 H         -49.188114     -127.994110      -40.717987
 H         -50.124439     -128.349854      -43.355568
 C         -48.192253     -128.341370      -41.152813
 C         -47.798363     -129.846191      -41.047493
 C         -47.050083     -127.333321      -40.896999
 C         -46.405449     -130.076477      -41.607594
 C         -45.607887     -127.836517      -41.383293
 C         -45.297569     -129.223907      -40.959278
 H         -48.465717     -130.508072      -41.575966
 H         -47.755505     -129.996536      -39.929039
 H         -47.318844     -126.310066      -41.411171
 H         -47.089153     -127.090561      -39.857952
 H         -46.492710     -129.755722      -42.694553
 H         -46.023762     -131.100479      -41.421177
 H         -44.895824     -127.079201      -40.975685
 H         -45.749489     -127.604843      -42.450863
 H         -44.332954     -129.423157      -41.465061
 H         -45.154240     -129.421204      -39.945686
