20
 generated by VMD
 C         -49.908489     -127.592316      -39.278759
 N         -49.155430     -126.721077      -39.198711
 H         -47.197033     -126.289757      -41.413696
 H         -50.772327     -128.236313      -39.169121
 C         -46.297092     -125.706497      -41.325184
 C         -45.098972     -126.027985      -40.421967
 C         -46.581863     -124.166809      -41.109016
 C         -43.847919     -125.205727      -40.692627
 C         -45.407639     -123.292465      -41.464531
 C         -44.173767     -123.727974      -40.585979
 H         -44.842678     -127.090576      -40.458580
 H         -45.459759     -125.888855      -39.457851
 H         -47.382786     -123.701851      -41.796318
 H         -46.862793     -124.126915      -40.010300
 H         -43.440792     -125.409851      -41.652458
 H         -43.049629     -125.383026      -40.018509
 H         -45.752323     -122.220161      -41.032940
 H         -45.094807     -123.167656      -42.598049
 H         -43.276062     -123.104431      -40.728809
 H         -44.466934     -123.473152      -39.518078
