20
 generated by VMD
 C         -49.844292     -128.527466      -43.177853
 N         -50.649181     -129.026031      -43.890839
 H         -48.669918     -128.253448      -39.686249
 H         -49.154408     -128.109085      -42.449005
 C         -47.833591     -128.254471      -40.370735
 C         -46.719398     -129.264877      -39.931808
 C         -47.456295     -126.949379      -41.086895
 C         -45.689785     -129.412399      -41.080605
 C         -46.400547     -127.211296      -42.172073
 C         -45.260338     -128.046860      -41.625435
 H         -47.044346     -130.287811      -39.766380
 H         -46.297127     -128.842773      -38.996151
 H         -48.258511     -126.447975      -41.503845
 H         -46.815384     -126.237335      -40.361401
 H         -45.918327     -130.149933      -41.912827
 H         -44.772724     -129.930557      -40.763012
 H         -45.866306     -126.312988      -42.640846
 H         -46.918625     -127.730064      -43.024372
 H         -44.497673     -128.191895      -42.385960
 H         -44.745064     -127.667542      -40.742111
