20
 generated by VMD
 C         -50.346504     -131.022064      -46.436504
 N         -50.297859     -131.210342      -47.577682
 H         -48.687485     -131.878571      -44.242493
 H         -50.585476     -130.626373      -45.444115
 C         -48.758530     -132.285919      -43.268425
 C         -49.335922     -133.688644      -43.109333
 C         -48.546734     -131.451157      -42.031258
 C         -48.608711     -134.458511      -42.093945
 C         -47.845234     -132.311188      -40.938046
 C         -48.512516     -133.655106      -40.791695
 H         -49.163399     -134.297012      -43.992886
 H         -50.401718     -133.617737      -42.847130
 H         -47.983513     -130.526352      -42.038628
 H         -49.626236     -131.259109      -41.661533
 H         -47.559952     -134.647430      -42.327477
 H         -49.013485     -135.405823      -41.810986
 H         -47.762222     -131.710358      -39.985649
 H         -46.805855     -132.405853      -41.150169
 H         -47.928905     -134.253708      -40.080532
 H         -49.580570     -133.462234      -40.537437
