20
 generated by VMD
 C         -28.073280      -73.201866      -18.305599
 N         -28.863422      -73.490074      -17.530783
 H         -25.391722      -71.928551      -18.727207
 H         -27.160698      -73.024765      -18.853344
 C         -25.392138      -71.846573      -19.828735
 C         -24.554955      -72.774254      -20.630615
 C         -25.890156      -70.635223      -20.438148
 C         -25.198074      -73.026489      -22.016073
 C         -26.386976      -70.794640      -21.859627
 C         -25.460445      -71.657539      -22.714083
 H         -24.528933      -73.722389      -20.070257
 H         -23.563116      -72.413887      -20.623377
 H         -26.696142      -70.224754      -19.845846
 H         -25.057716      -69.826614      -20.456091
 H         -26.102812      -73.606354      -21.958948
 H         -24.493418      -73.648949      -22.576349
 H         -26.585661      -69.743538      -22.175053
 H         -27.460114      -71.229942      -21.878883
 H         -25.933418      -72.009781      -23.668192
 H         -24.518879      -71.163521      -22.823118
