20
 generated by VMD
 C         -68.704605     -185.685211      -66.428726
 N         -68.068970     -186.279160      -67.207954
 H         -69.473969     -183.560104      -63.890209
 H         -69.341263     -185.092850      -65.736122
 C         -69.372177     -184.247437      -63.102573
 C         -70.690804     -184.785599      -62.343311
 C         -68.017105     -184.592850      -62.760532
 C         -70.370178     -185.847641      -61.222443
 C         -67.934044     -185.528091      -61.547062
 C         -69.053215     -186.542999      -61.469601
 H         -71.196121     -185.356232      -63.224957
 H         -71.314842     -183.916336      -62.066029
 H         -67.438660     -185.154892      -63.579693
 H         -67.463989     -183.680908      -62.500725
 H         -71.237305     -186.554062      -61.195168
 H         -70.297600     -185.499756      -60.150703
 H         -67.940231     -184.955887      -60.563286
 H         -66.913261     -186.079102      -61.563538
 H         -69.055817     -187.111862      -62.312542
 H         -68.887878     -187.096909      -60.624454
