20
 generated by VMD
 C         -57.980286     -150.713470      -48.865891
 N         -58.065567     -151.824463      -48.656860
 H         -55.220760     -149.760345      -47.671677
 H         -57.917786     -149.708145      -49.131550
 C         -55.228096     -149.439499      -48.679707
 C         -54.391434     -150.382584      -49.543251
 C         -55.169022     -147.959854      -48.956821
 C         -54.116867     -149.872375      -50.869453
 C         -54.931236     -147.518005      -50.415840
 C         -53.830990     -148.411041      -51.043442
 H         -54.812748     -151.372498      -49.499928
 H         -53.516609     -150.535294      -49.009975
 H         -56.065655     -147.462769      -48.646957
 H         -54.342613     -147.476028      -48.319233
 H         -55.085052     -150.016632      -51.369499
 H         -53.403736     -150.438965      -51.498882
 H         -54.632172     -146.482407      -50.612228
 H         -55.943748     -147.535812      -50.894218
 H         -53.875313     -148.222992      -52.066269
 H         -52.860020     -148.046188      -50.657269
