20
 generated by VMD
 C         -40.441231     -117.512718      -34.533512
 N         -39.474251     -117.000587      -34.950657
 H         -41.887722     -116.129066      -37.186871
 H         -41.418144     -117.715736      -34.267834
 C         -42.815331     -116.519218      -37.595680
 C         -42.933636     -116.494743      -39.089996
 C         -44.005543     -116.301102      -36.684650
 C         -44.169807     -117.320435      -39.456223
 C         -45.266171     -116.931259      -37.272243
 C         -45.347954     -116.694855      -38.738590
 H         -42.049603     -116.858521      -39.620983
 H         -42.977108     -115.474907      -39.517399
 H         -43.776646     -116.680008      -35.642448
 H         -44.348740     -115.261925      -36.591686
 H         -44.265308     -118.416656      -39.293594
 H         -44.417915     -117.140373      -40.491585
 H         -45.956898     -116.332718      -36.679962
 H         -45.228535     -117.960449      -37.085762
 H         -46.273308     -117.065903      -39.146942
 H         -45.305405     -115.707024      -39.070900
