20
 generated by VMD
 C         -50.241886     -131.782013      -46.828201
 N         -50.067505     -132.096146      -47.992558
 H         -48.557945     -131.547409      -43.823383
 H         -50.575706     -131.500610      -45.784550
 C         -48.858002     -132.211121      -43.058445
 C         -49.554657     -133.467148      -43.498898
 C         -48.620773     -131.993851      -41.628632
 C         -49.093906     -134.693069      -42.709900
 C         -48.195652     -133.235977      -40.836609
 C         -49.085606     -134.477097      -41.162945
 H         -49.429115     -133.782593      -44.492329
 H         -50.702126     -133.346542      -43.378281
 H         -47.870842     -131.208801      -41.337761
 H         -49.612206     -131.684128      -41.188915
 H         -48.092255     -135.007111      -43.063808
 H         -49.685482     -135.615448      -42.833958
 H         -48.221294     -132.957184      -39.748257
 H         -47.158569     -133.606796      -40.987438
 H         -48.429951     -135.292007      -40.706043
 H         -50.046467     -134.318878      -40.722019
