20
 generated by VMD
 C         -67.158203     -177.776703      -57.264694
 N         -67.708183     -178.694016      -56.828735
 H         -64.081314     -176.197800      -59.175941
 H         -66.672028     -176.976776      -57.786144
 C         -64.198044     -175.188370      -59.460728
 C         -65.544388     -174.501740      -59.496048
 C         -63.208248     -174.665253      -60.522659
 C         -65.426018     -172.923965      -59.510452
 C         -62.965221     -173.300095      -60.287472
 C         -64.210960     -172.347549      -60.357025
 H         -66.098564     -174.832611      -58.625320
 H         -66.052223     -174.811676      -60.462421
 H         -62.420227     -175.376419      -60.411674
 H         -63.798527     -174.892288      -61.466225
 H         -65.045341     -172.799606      -58.470551
 H         -66.410286     -172.444260      -59.699337
 H         -62.409882     -172.758224      -61.043224
 H         -62.440968     -173.265900      -59.341572
 H         -64.087509     -171.304276      -59.959034
 H         -64.556900     -172.246719      -61.411526
