20
 generated by VMD
 C         -58.826324     -152.508331      -50.648411
 N         -59.854969     -152.960052      -50.311069
 H         -56.893879     -151.425751      -48.665268
 H         -57.905708     -152.143921      -51.061298
 C         -56.236801     -151.128143      -49.457687
 C         -55.489502     -152.346146      -50.042477
 C         -55.652485     -149.668182      -49.380417
 C         -54.602394     -151.727676      -51.142372
 C         -54.717300     -149.322845      -50.600296
 C         -53.750347     -150.437424      -50.850632
 H         -56.072624     -153.145737      -50.382885
 H         -54.826328     -152.764511      -49.265514
 H         -56.521149     -148.984650      -49.303253
 H         -55.169361     -149.651215      -48.424747
 H         -55.208889     -151.661987      -52.082535
 H         -53.903542     -152.496536      -51.439739
 H         -54.143429     -148.282852      -50.592472
 H         -55.487381     -149.406509      -51.259956
 H         -53.218647     -150.224548      -51.895496
 H         -53.029816     -150.622787      -50.084339
