20
 generated by VMD
 C         -55.482662     -148.827362      -45.293663
 N         -54.773914     -149.163834      -44.430759
 H         -54.701363     -148.264587      -48.794231
 H         -55.986141     -148.416428      -46.187527
 C         -54.445782     -147.236588      -49.184746
 C         -53.091995     -147.090225      -49.910343
 C         -54.913155     -145.993515      -48.526741
 C         -53.349159     -145.999191      -51.070572
 C         -55.161438     -144.909897      -49.581169
 C         -53.901752     -144.607544      -50.493385
 H         -52.718388     -147.994492      -50.410740
 H         -52.242294     -146.970352      -49.213329
 H         -55.845043     -146.243301      -48.085670
 H         -54.253307     -145.638397      -47.768383
 H         -54.165474     -146.399323      -51.656349
 H         -52.455788     -145.836777      -51.698792
 H         -55.515228     -143.996155      -49.119194
 H         -55.957382     -145.237991      -50.206566
 H         -54.350769     -143.999344      -51.252365
 H         -53.150593     -144.092300      -49.963493
