20
 generated by VMD
 C         -22.697422      -55.509422      -16.516317
 N         -23.336554      -54.650082      -15.960534
 H         -18.936060      -55.235352      -15.269145
 H         -22.008408      -56.325817      -16.952343
 C         -19.358418      -56.255894      -14.986345
 C         -20.470161      -56.336639      -13.871827
 C         -18.428345      -57.448658      -15.154912
 C         -20.824789      -57.749409      -13.225976
 C         -18.990553      -58.863850      -14.719351
 C         -19.751942      -58.806595      -13.348917
 H         -21.371986      -55.941254      -14.431519
 H         -20.273071      -55.667095      -12.980994
 H         -18.280670      -57.663734      -16.250467
 H         -17.498423      -57.225151      -14.621426
 H         -21.780531      -58.140709      -13.660664
 H         -21.087288      -57.522903      -12.210952
 H         -18.246397      -59.691753      -14.818707
 H         -19.776030      -59.079765      -15.401212
 H         -20.196138      -59.801208      -13.125452
 H         -19.007067      -58.670845      -12.607695
