20
 generated by VMD
 C         -60.361687     -170.335327      -55.129433
 N         -59.248936     -170.373001      -55.393463
 H         -62.928867     -170.562103      -56.467972
 H         -61.410629     -170.196793      -54.860149
 C         -63.326088     -169.665375      -56.865978
 C         -62.367435     -168.967239      -57.901550
 C         -64.507637     -168.766144      -56.266109
 C         -62.977100     -167.897827      -58.807343
 C         -65.044518     -167.719437      -57.136360
 C         -63.936146     -167.033508      -57.960419
 H         -61.894203     -169.742538      -58.416344
 H         -61.445026     -168.448868      -57.297405
 H         -65.229538     -169.434952      -55.880833
 H         -64.125587     -168.167984      -55.443977
 H         -63.622807     -168.172211      -59.635067
 H         -62.238136     -167.215805      -59.171455
 H         -65.489258     -166.880585      -56.551865
 H         -65.788635     -168.110046      -57.816860
 H         -64.433426     -166.213669      -58.583187
 H         -63.288548     -166.436707      -57.308212
