20
 generated by VMD
 C         -40.719528     -100.119133      -29.871460
 N         -40.519508     -100.275063      -28.760538
 H         -37.315941      -99.106552      -30.478384
 H         -41.032383      -99.854668      -30.936953
 C         -36.440353      -99.517113      -30.840773
 C         -35.883553      -99.633865      -32.170914
 C         -35.346649      -99.601364      -29.794569
 C         -34.969280      -98.396927      -32.476677
 C         -34.344261      -98.393654      -30.000486
 C         -33.766457      -98.461678      -31.438961
 H         -36.596603      -99.625015      -32.967617
 H         -35.413765     -100.628181      -32.302700
 H         -35.839359      -99.573677      -28.846834
 H         -34.789547     -100.546150      -29.788267
 H         -35.582775      -97.510925      -32.444263
 H         -34.673115      -98.464516      -33.516991
 H         -33.508156      -98.446503      -29.269787
 H         -34.833622      -97.460022      -29.688648
 H         -33.017784      -97.758530      -31.683334
 H         -33.292625      -99.482376      -31.633230
