20
 generated by VMD
 C         -30.176281      -80.029114      -26.276882
 N         -29.265860      -79.734657      -26.957846
 H         -28.544752      -82.546967      -25.401505
 H         -30.896429      -80.434746      -25.472628
 C         -29.342171      -82.776031      -24.625755
 C         -29.053114      -82.234894      -23.285999
 C         -29.965454      -84.161690      -24.647978
 C         -30.371405      -82.295609      -22.427010
 C         -31.267202      -84.067345      -23.946676
 C         -31.081499      -83.660927      -22.519512
 H         -28.793463      -81.133347      -23.274645
 H         -28.223097      -82.609978      -22.763018
 H         -30.107525      -84.620750      -25.688150
 H         -29.180151      -84.757065      -24.221277
 H         -31.002611      -81.518059      -22.737906
 H         -30.084669      -82.083939      -21.320726
 H         -31.772146      -85.079620      -23.981848
 H         -31.936979      -83.417618      -24.471289
 H         -32.144936      -83.556572      -21.992147
 H         -30.657986      -84.540283      -22.064318
