20
 generated by VMD
 C         -11.952221      -27.744955       -1.517545
 N         -11.882752      -26.660040       -1.817036
 H         -10.415637      -25.818359       -4.546768
 H          -8.863378      -25.820244       -5.460371
 C          -9.325604      -26.091333       -4.484422
 C          -9.080322      -27.562473       -4.185944
 C          -8.655315      -25.240664       -3.398198
 C          -7.563311      -27.799980       -4.179088
 C          -7.184152      -25.534866       -3.244302
 C          -6.903048      -26.965570       -3.021841
 H          -9.651655      -28.102798       -4.895878
 H          -9.479339      -27.892689       -3.196006
 H          -8.728358      -24.161890       -3.607567
 H          -9.126613      -25.437035       -2.441322
 H          -6.997367      -27.537821       -5.114069
 H          -7.285731      -28.869587       -4.073588
 H          -6.749485      -24.862320       -2.422483
 H          -6.679581      -25.102859       -4.137520
 H          -5.841328      -27.159754       -2.920664
 H          -7.285770      -27.340199       -2.048815
