20
 generated by VMD
 C         -38.669819      -98.692970      -27.719254
 N         -38.427288      -99.805801      -27.448601
 H         -37.540852      -97.615791      -30.820471
 H         -38.762390      -97.756226      -28.127150
 C         -36.485443      -97.600021      -30.831343
 C         -35.586903      -98.177963      -31.979685
 C         -35.717560      -97.328018      -29.604639
 C         -34.336224      -97.392143      -32.272884
 C         -34.498661      -96.387947      -29.789879
 C         -33.602905      -96.856895      -31.072702
 H         -36.361393      -98.194832      -32.821835
 H         -35.280613      -99.206154      -31.755280
 H         -36.457417      -96.826988      -28.908846
 H         -35.414291      -98.250916      -29.121836
 H         -34.555794      -96.475586      -32.912933
 H         -33.572842      -97.897903      -33.042301
 H         -33.930996      -96.327507      -28.846342
 H         -34.869980      -95.343964      -29.982958
 H         -33.005375      -96.141144      -31.517744
 H         -32.897144      -97.624435      -30.614054
