20
 generated by VMD
 C         -19.219746      -59.885593      -17.110069
 N         -18.946648      -60.783390      -16.419029
 H         -22.764656      -61.462399      -17.899607
 H         -19.352636      -58.876350      -17.696882
 C         -23.431335      -62.165272      -17.404819
 C         -24.406509      -63.029320      -18.125916
 C         -23.223652      -62.345776      -15.959459
 C         -24.047396      -64.496277      -17.936319
 C         -23.483791      -63.813068      -15.522919
 C         -24.084381      -64.873154      -16.435068
 H         -24.366358      -62.759224      -19.173595
 H         -25.488379      -62.759109      -17.990673
 H         -22.258451      -62.045685      -15.685557
 H         -23.815134      -61.665745      -15.317735
 H         -23.087076      -64.450302      -18.382122
 H         -24.554476      -65.179878      -18.627621
 H         -24.034533      -63.849072      -14.552174
 H         -22.434006      -64.187988      -15.546262
 H         -23.587170      -65.793068      -16.223270
 H         -25.134075      -64.989952      -16.119932
