20
 generated by VMD
 C         -18.408876      -48.874001       -7.156250
 N         -19.111990      -49.713177       -7.342085
 H         -15.964689      -47.719761      -10.071169
 H         -16.280811      -49.056957      -11.313151
 C         -16.261454      -47.937130      -11.141683
 C         -15.206751      -47.310879      -12.090090
 C         -17.609489      -47.399090      -11.545536
 C         -15.439584      -47.920986      -13.447177
 C         -17.916294      -47.433796      -13.042289
 C         -16.719294      -47.243340      -14.031404
 H         -14.137449      -47.598232      -11.810855
 H         -15.153491      -46.211960      -11.992660
 H         -18.363890      -47.967838      -11.046084
 H         -17.771030      -46.408291      -11.146156
 H         -15.547108      -49.014111      -13.420395
 H         -14.576321      -47.706074      -14.064333
 H         -18.800627      -46.819214      -13.387270
 H         -18.172445      -48.435043      -13.234263
 H         -16.934067      -47.722664      -15.025266
 H         -16.544945      -46.105347      -14.210378
