20
 generated by VMD
 C         -11.472241      -27.440258       -1.470944
 N         -12.125248      -26.528841       -1.601154
 H         -10.416571      -25.789961       -4.211677
 H          -9.089100      -25.680979       -5.275825
 C          -9.370432      -26.031309       -4.275655
 C          -8.972574      -27.475065       -4.168361
 C          -8.674601      -25.197725       -3.279461
 C          -7.456368      -27.667973       -4.127975
 C          -7.157479      -25.329813       -3.356542
 C          -6.785893      -26.709913       -3.118809
 H          -9.476585      -28.220089       -4.907359
 H          -9.446837      -27.829273       -3.279684
 H          -9.066367      -24.166075       -3.249669
 H          -8.899364      -25.478922       -2.237425
 H          -7.006121      -27.425505       -5.088700
 H          -7.126234      -28.691433       -4.012202
 H          -6.718431      -24.604038       -2.705134
 H          -6.814547      -25.073874       -4.364894
 H          -5.691080      -26.834618       -3.094839
 H          -7.143130      -27.044949       -2.158749
