20
 generated by VMD
 C         -41.532219     -119.728752      -34.235703
 N         -41.618683     -120.460686      -35.128078
 H         -43.331650     -118.723938      -36.779579
 H         -41.492508     -118.887154      -33.477348
 C         -43.804722     -118.426338      -37.720955
 C         -43.028084     -118.359825      -39.102577
 C         -45.161469     -117.845444      -37.810413
 C         -43.851425     -118.672279      -40.317497
 C         -46.005741     -118.102448      -39.097996
 C         -45.158695     -117.940674      -40.410446
 H         -42.112816     -118.959816      -38.941956
 H         -42.764118     -117.179260      -39.231625
 H         -45.658615     -118.268654      -36.997913
 H         -45.136364     -116.766655      -37.649414
 H         -44.120937     -119.774490      -40.241081
 H         -43.181686     -118.594078      -41.191975
 H         -46.880985     -117.462791      -39.028175
 H         -46.351841     -119.065033      -39.155262
 H         -45.672832     -118.277367      -41.282776
 H         -44.883682     -116.905418      -40.570774
