20
 generated by VMD
 C         -12.468341      -27.416628       -4.688533
 N         -13.286586      -28.153526       -4.780448
 H         -10.639132      -30.121765       -2.539689
 H         -10.861524      -28.780617       -3.729517
 C         -10.129745      -29.460808       -3.283761
 C          -9.521006      -30.254627       -4.465711
 C          -9.109286      -28.798807       -2.369251
 C          -8.678188      -29.290981       -5.341428
 C          -8.073100      -27.992109       -3.170302
 C          -7.539939      -28.592957       -4.428707
 H         -10.276225      -30.757689       -5.098505
 H          -9.005861      -31.134087       -4.087150
 H          -9.573590      -28.114290       -1.646123
 H          -8.615319      -29.570459       -1.675784
 H          -9.240942      -28.509449       -5.828587
 H          -8.244968      -29.801218       -6.164310
 H          -7.251283      -27.744156       -2.458499
 H          -8.516552      -27.002357       -3.248458
 H          -7.163081      -27.771547       -5.029708
 H          -6.719698      -29.367168       -4.188492
