20
 generated by VMD
 C         -41.876270     -101.989586      -33.776798
 N         -40.732304     -101.902435      -34.080589
 H         -39.295536     -103.775444      -32.692558
 H         -42.924812     -102.216377      -33.374813
 C         -38.279690     -103.854614      -32.237003
 C         -37.073208     -103.480278      -33.074226
 C         -38.017914     -104.517181      -30.906620
 C         -35.800323     -103.052353      -32.359600
 C         -36.792477     -103.808357      -30.296356
 C         -35.516624     -103.857826      -31.073568
 H         -37.573597     -102.713654      -33.696831
 H         -36.816887     -104.344894      -33.671341
 H         -38.813393     -104.344910      -30.174828
 H         -37.960781     -105.585556      -31.127131
 H         -35.844219     -101.981773      -32.187241
 H         -34.933258     -103.271362      -32.887066
 H         -36.607437     -104.282417      -29.339903
 H         -37.139282     -102.724915      -30.036484
 H         -34.689217     -103.517624      -30.493132
 H         -35.213287     -104.877991      -31.344864
