20
 generated by VMD
 C         -23.202614      -53.717098      -14.736670
 N         -24.208355      -53.368378      -15.057566
 H         -20.414074      -55.068157      -15.360131
 H         -22.256908      -54.300972      -14.145830
 C         -19.727362      -55.413651      -14.525464
 C         -19.151653      -54.235542      -13.637109
 C         -18.734823      -56.452801      -14.941768
 C         -18.256504      -54.829212      -12.507157
 C         -17.940706      -56.973576      -13.737665
 C         -17.240007      -55.864422      -12.996070
 H         -20.031805      -53.765339      -13.100261
 H         -18.507545      -53.582779      -14.270324
 H         -19.233652      -57.288300      -15.397826
 H         -18.053558      -56.124851      -15.691818
 H         -18.872969      -55.408844      -11.783092
 H         -17.795517      -53.980579      -12.018871
 H         -17.259903      -57.705624      -14.139765
 H         -18.643110      -57.524635      -13.044088
 H         -16.715164      -56.317207      -12.139502
 H         -16.513985      -55.390053      -13.620184
