20
 generated by VMD
 C         -68.982857     -180.233170      -59.347233
 N         -68.473633     -180.662292      -60.325470
 H         -67.410011     -176.827911      -59.526627
 H         -69.474899     -179.999710      -58.440414
 C         -66.403725     -176.820755      -59.924541
 C         -66.084396     -176.469193      -61.358234
 C         -65.261841     -177.092743      -58.988567
 C         -64.847656     -175.583038      -61.604088
 C         -64.161148     -176.020706      -59.113976
 C         -63.698914     -175.948807      -60.614555
 H         -66.934837     -175.984390      -61.861053
 H         -65.821213     -177.360321      -61.840656
 H         -65.696365     -176.973312      -57.915558
 H         -64.887039     -178.120712      -59.049076
 H         -65.129913     -174.420334      -61.492519
 H         -64.388863     -175.575165      -62.604675
 H         -63.360638     -176.342545      -58.435616
 H         -64.509445     -175.121536      -58.606670
 H         -63.083614     -175.062317      -60.830902
 H         -63.168106     -176.817139      -60.898701
