20
 generated by VMD
 C         -40.792454     -103.846214      -37.284122
 N         -40.553822     -104.696640      -36.520599
 H         -39.715378     -106.188667      -34.375797
 H         -41.151054     -103.061966      -37.898140
 C         -39.377697     -106.837875      -33.540386
 C         -38.128307     -106.310272      -32.833298
 C         -39.895592     -108.247856      -33.223026
 C         -38.003124     -106.882950      -31.527094
 C         -39.612118     -108.889458      -31.862848
 C         -38.122837     -108.356781      -31.544449
 H         -38.028664     -105.209793      -32.928165
 H         -37.187874     -106.710808      -33.378223
 H         -40.906738     -108.224747      -33.595627
 H         -39.294010     -108.948036      -33.844311
 H         -38.711426     -106.450745      -30.749603
 H         -37.009377     -106.759697      -31.077888
 H         -39.716457     -109.964470      -31.898066
 H         -40.316948     -108.443314      -31.087921
 H         -37.894218     -108.814087      -30.553167
 H         -37.384754     -108.777451      -32.235310
