20
 generated by VMD
 C         -19.316206      -63.584869      -16.693846
 N         -20.184893      -62.949932      -17.086479
 H         -22.636644      -64.473869      -17.373608
 H         -18.383591      -64.026260      -16.136162
 C         -23.757059      -64.303780      -17.453005
 C         -24.327719      -64.094002      -18.782040
 C         -24.582178      -65.072975      -16.523355
 C         -24.804338      -65.479805      -19.368465
 C         -24.861046      -66.504066      -16.982859
 C         -25.453297      -66.477997      -18.433485
 H         -23.467964      -63.755619      -19.363873
 H         -25.176823      -63.426445      -18.732502
 H         -24.197510      -64.900795      -15.512266
 H         -25.536774      -64.628738      -16.310112
 H         -23.829008      -65.936813      -19.625734
 H         -25.384253      -65.197655      -20.257860
 H         -25.592024      -67.095596      -16.412481
 H         -23.916483      -67.061378      -16.965733
 H         -25.454561      -67.462830      -18.856905
 H         -26.535158      -66.303902      -18.349943
