20
 generated by VMD
 C         -19.848518      -61.065388      -17.045868
 N         -19.564104      -60.637367      -16.031250
 H         -22.903322      -61.517384      -17.849997
 H         -20.361385      -61.503284      -18.004692
 C         -22.972048      -62.574657      -17.696318
 C         -24.091900      -63.279488      -18.470173
 C         -22.803864      -62.863014      -16.204552
 C         -24.305908      -64.668861      -18.059883
 C         -23.428961      -64.229034      -15.831489
 C         -24.688341      -64.604767      -16.557096
 H         -23.792347      -63.272789      -19.538832
 H         -25.026779      -62.625793      -18.359522
 H         -21.778318      -62.912777      -15.805241
 H         -23.311050      -61.985649      -15.653893
 H         -23.334787      -65.310982      -18.214502
 H         -25.021402      -65.321411      -18.558287
 H         -23.661165      -64.181351      -14.763189
 H         -22.715073      -65.002815      -16.132103
 H         -25.138205      -65.531090      -16.137136
 H         -25.542292      -63.855801      -16.421888
