20
 generated by VMD
 C         -41.749016     -102.216522      -33.961082
 N         -40.801369     -101.860046      -34.497540
 H         -39.330105     -103.622932      -32.459396
 H         -42.646000     -102.430649      -33.485268
 C         -38.304363     -103.913284      -32.133705
 C         -37.190365     -103.683334      -33.066704
 C         -38.147842     -104.727303      -30.961927
 C         -35.923336     -103.139687      -32.391136
 C         -36.864761     -104.293121      -30.208755
 C         -35.670353     -104.111412      -31.157652
 H         -37.418530     -102.891914      -33.784657
 H         -36.966782     -104.652832      -33.612637
 H         -39.004505     -104.606407      -30.384861
 H         -37.957470     -105.826416      -31.051300
 H         -36.184601     -102.171677      -31.973112
 H         -35.306202     -102.952545      -33.217468
 H         -36.634445     -105.158798      -29.546097
 H         -37.057663     -103.426262      -29.538094
 H         -34.868298     -103.727486      -30.565821
 H         -35.338131     -105.071312      -31.479818
