20
 generated by VMD
 C         -50.705235     -145.035004      -44.831707
 N         -50.869881     -146.079651      -44.287025
 H         -53.524303     -144.313522      -46.290279
 H         -50.717087     -144.096848      -45.412971
 C         -53.582775     -143.593842      -47.100655
 C         -52.554295     -143.549713      -48.274780
 C         -54.740791     -142.630615      -47.085659
 C         -53.317463     -143.528763      -49.667439
 C         -55.435886     -142.696869      -48.423058
 C         -54.584484     -142.497513      -49.655403
 H         -51.800610     -144.421997      -48.284431
 H         -51.863426     -142.706390      -48.209526
 H         -55.482243     -142.812134      -46.281357
 H         -54.034168     -141.651398      -46.908142
 H         -53.790051     -144.462784      -49.771370
 H         -52.806183     -143.198242      -50.565723
 H         -56.317307     -142.060623      -48.483261
 H         -55.884434     -143.662323      -48.520679
 H         -54.985916     -142.574463      -50.668003
 H         -54.156792     -141.464630      -49.701420
