20
 generated by VMD
 C         -38.338448      -98.673660      -27.844810
 N         -38.192455      -99.544594      -27.084656
 H         -37.368382      -98.167221      -30.621246
 H         -38.358482      -97.688293      -28.426079
 C         -36.448273      -97.560791      -30.699076
 C         -35.631851      -98.006386      -31.815535
 C         -35.654869      -96.887260      -29.509245
 C         -34.478809      -97.039146      -32.177666
 C         -34.314693      -96.160805      -29.845896
 C         -33.570507      -96.566093      -31.070484
 H         -36.314690      -98.326408      -32.672874
 H         -35.101753      -98.898720      -31.520550
 H         -36.360668      -96.071030      -29.112383
 H         -35.530266      -97.557785      -28.635929
 H         -34.912334      -96.186890      -32.704021
 H         -33.979359      -97.468788      -32.947048
 H         -33.634930      -96.113503      -28.997105
 H         -34.564243      -95.053207      -29.990101
 H         -32.885376      -95.817192      -31.532377
 H         -32.968452      -97.407738      -30.628637
