20
 generated by VMD
 C         -69.358452     -180.381790      -59.907516
 N         -68.892242     -181.276398      -60.443184
 H         -67.515533     -177.205124      -59.733105
 H         -69.731781     -179.490738      -59.501915
 C         -66.361427     -177.040100      -59.933529
 C         -66.015221     -176.890381      -61.323883
 C         -65.336815     -176.975342      -58.869789
 C         -64.882034     -175.873993      -61.562244
 C         -64.084587     -175.997040      -59.196777
 C         -63.630051     -176.121185      -60.665489
 H         -66.910683     -176.786163      -61.911888
 H         -65.734604     -177.940857      -61.641514
 H         -65.857224     -176.597672      -58.002964
 H         -64.995903     -178.066864      -58.642086
 H         -65.331406     -174.907501      -61.327168
 H         -64.598618     -175.751511      -62.672390
 H         -63.195747     -176.273880      -58.527782
 H         -64.426071     -174.939667      -58.991398
 H         -62.859035     -175.468597      -61.048565
 H         -63.166630     -177.188614      -60.797035
