20
 generated by VMD
 C         -75.513214     -202.024429      -66.236115
 N         -76.292419     -202.615280      -65.648643
 H         -75.868942     -200.116058      -68.986603
 H         -74.658157     -201.444473      -66.667015
 C         -74.994705     -199.480026      -69.148987
 C         -74.897133     -198.122330      -68.364525
 C         -73.964249     -199.866837      -70.087219
 C         -73.423286     -197.730301      -68.279892
 C         -73.236351     -198.680939      -70.740128
 C         -72.645920     -197.766434      -69.626015
 H         -75.270973     -198.295563      -67.342155
 H         -75.575958     -197.390579      -68.970383
 H         -73.223801     -200.621170      -69.777435
 H         -74.471344     -200.480774      -70.974190
 H         -72.941742     -198.449921      -67.569885
 H         -73.329514     -196.796387      -67.681419
 H         -73.950958     -198.073456      -71.331772
 H         -72.457024     -199.136917      -71.401352
 H         -71.692558     -197.987000      -69.439774
 H         -72.616119     -196.677963      -70.031708
