20
 generated by VMD
 C         -79.508705     -205.244202      -70.970703
 N         -80.653793     -205.507202      -70.972763
 H         -77.013870     -202.740433      -69.337944
 H         -78.460678     -205.037659      -70.904991
 C         -75.947662     -202.958359      -69.489357
 C         -75.395302     -202.110321      -70.584518
 C         -75.178062     -204.180252      -69.031677
 C         -73.974022     -201.678940      -70.170265
 C         -73.637047     -204.108154      -69.185966
 C         -73.174507     -203.058167      -70.229683
 H         -75.975159     -201.182678      -70.645760
 H         -75.464760     -202.667191      -71.544502
 H         -75.363991     -204.492966      -68.002556
 H         -75.448479     -204.877502      -69.834625
 H         -74.008934     -201.224884      -69.173630
 H         -73.602890     -200.996841      -70.922668
 H         -73.392998     -205.137650      -69.610115
 H         -73.247002     -204.011978      -68.217186
 H         -72.184036     -202.875595      -70.094299
 H         -73.280128     -203.564056      -71.194206
