20
 generated by VMD
 C         -20.320932      -57.313057      -16.712624
 N         -19.454172      -56.525307      -16.783342
 H         -22.753275      -59.850239      -17.836781
 H         -21.293114      -57.808201      -16.781137
 C         -22.521303      -60.458839      -16.966021
 C         -23.569159      -60.730328      -15.902981
 C         -21.210503      -61.185658      -16.755198
 C         -23.111389      -60.884117      -14.493321
 C         -21.069645      -62.141224      -15.526618
 C         -22.062214      -61.978798      -14.330416
 H         -24.129854      -61.584396      -16.220724
 H         -24.394493      -59.967842      -15.965532
 H         -21.023710      -61.819729      -17.605125
 H         -20.360622      -60.476856      -16.692802
 H         -23.952183      -61.132450      -13.852454
 H         -22.736546      -59.886688      -14.175017
 H         -20.108465      -61.978775      -15.058535
 H         -20.954523      -63.166142      -15.843165
 H         -22.638437      -62.895275      -14.149908
 H         -21.446850      -61.864990      -13.360275
