20
 generated by VMD
 C         -49.242691     -140.927399      -45.485165
 N         -48.180172     -141.265274      -45.115719
 H         -51.313007     -138.546066      -46.005135
 H         -50.186237     -140.497894      -45.924541
 C         -52.020222     -139.367996      -46.282936
 C         -52.626526     -139.463394      -47.571774
 C         -52.876274     -139.854218      -45.166477
 C         -53.367855     -140.711823      -48.040638
 C         -53.435081     -141.254456      -45.475777
 C         -54.221130     -141.175598      -46.766888
 H         -52.030666     -139.150772      -48.402458
 H         -53.426517     -138.654190      -47.451828
 H         -52.214619     -139.962585      -44.286114
 H         -53.577805     -139.054504      -44.992107
 H         -52.609608     -141.291946      -48.411522
 H         -54.076065     -140.592163      -48.812595
 H         -54.174061     -141.239502      -44.616913
 H         -52.712833     -142.146027      -45.573555
 H         -54.643223     -142.201477      -47.008179
 H         -55.149906     -140.452484      -46.743629
