20
 generated by VMD
 C         -70.118080     -181.066879      -62.397785
 N         -70.574005     -180.052109      -62.681095
 H         -66.779427     -181.833801      -60.597744
 H         -69.635300     -182.022400      -62.245029
 C         -66.298119     -180.815384      -60.383476
 C         -64.835182     -180.638992      -60.446007
 C         -67.163712     -179.636948      -60.361950
 C         -64.290009     -179.255341      -60.793709
 C         -66.652649     -178.416153      -60.981079
 C         -65.265480     -178.009750      -60.570545
 H         -64.264763     -181.363327      -60.985229
 H         -64.471451     -180.987152      -59.462723
 H         -68.102333     -179.966019      -60.670822
 H         -67.306999     -179.349472      -59.296936
 H         -63.950008     -179.282288      -61.890530
 H         -63.358349     -179.033432      -60.147171
 H         -67.343506     -177.619919      -60.664131
 H         -66.818077     -178.502228      -62.037167
 H         -64.786301     -177.180893      -60.997974
 H         -65.259911     -177.840363      -59.457767
