20
 generated by VMD
 C          -1.613536       -8.229361        0.645362
 N          -2.403401       -7.642439        0.146205
 H          -3.452126       -9.223637        2.373891
 H          -2.164191      -10.500394        2.198451
 C          -3.119318      -10.220080        2.704741
 C          -4.042759      -11.375660        2.352064
 C          -2.844191      -10.125370        4.218348
 C          -3.539079      -12.743318        2.946927
 C          -2.417510      -11.461890        4.747352
 C          -3.327271      -12.632874        4.433022
 H          -4.037903      -11.541942        1.240037
 H          -5.096199      -11.204801        2.755948
 H          -2.068339       -9.358634        4.412042
 H          -3.632660       -9.642114        4.771891
 H          -2.666221      -13.041324        2.319047
 H          -4.352553      -13.411166        2.667325
 H          -2.190493      -11.374955        5.801405
 H          -1.415464      -11.680253        4.385959
 H          -2.749290      -13.494214        4.780687
 H          -4.247887      -12.550939        5.010316
