20
 generated by VMD
 C         -72.780785     -198.670471      -65.691437
 N         -73.755989     -199.007141      -66.214073
 H         -70.976883     -196.378891      -67.477730
 H         -71.901505     -198.245697      -65.161308
 C         -71.990562     -196.228531      -67.782997
 C         -72.950500     -195.529602      -66.958679
 C         -72.383003     -196.964996      -68.989777
 C         -74.325233     -195.306107      -67.610672
 C         -73.883293     -197.379593      -69.048714
 C         -74.877129     -196.615143      -68.192207
 H         -72.357903     -194.672577      -66.506744
 H         -73.154396     -196.021881      -65.996498
 H         -72.201012     -196.244354      -69.861801
 H         -71.743553     -197.820206      -69.258446
 H         -74.174393     -194.657440      -68.459305
 H         -75.114983     -194.874481      -66.918030
 H         -74.210297     -198.430161      -68.893356
 H         -74.125862     -197.211899      -70.075066
 H         -75.808090     -196.319809      -68.633316
 H         -75.093773     -197.174454      -67.188965
