20
 generated by VMD
 C         -27.791094      -81.177788      -27.494133
 N         -28.936075      -81.364304      -27.544134
 H         -29.504002      -83.511444      -25.209354
 H         -26.766060      -80.969704      -27.591084
 C         -30.352955      -83.905670      -24.692598
 C         -30.322453      -84.059891      -23.226143
 C         -31.119658      -84.856300      -25.467096
 C         -31.761854      -84.396477      -22.630606
 C         -32.487461      -85.412888      -24.793518
 C         -32.262268      -85.721359      -23.281052
 H         -29.658461      -83.279320      -22.792292
 H         -29.715496      -84.909821      -23.114025
 H         -31.338446      -84.660797      -26.506786
 H         -30.409126      -85.682175      -25.608536
 H         -32.464542      -83.504967      -22.906368
 H         -31.646952      -84.677361      -21.641743
 H         -32.733028      -86.328583      -25.158623
 H         -33.306072      -84.667053      -24.921963
 H         -33.121113      -86.049210      -22.677055
 H         -31.495333      -86.397560      -23.030701
