20
 generated by VMD
 C         -10.951672      -34.226566       -8.763375
 N         -11.242948      -33.139637       -8.881598
 H         -11.495299      -38.022064       -8.001338
 H         -12.159094      -37.260147       -6.607261
 C         -12.355238      -38.031643       -7.348765
 C         -12.465173      -39.295536       -6.570203
 C         -13.633367      -37.654007       -8.012561
 C         -13.609377      -39.283985       -5.601837
 C         -14.861128      -37.766792       -7.099308
 C         -14.956605      -39.014816       -6.307484
 H         -11.570794      -39.394547       -5.940519
 H         -12.563351      -40.116024       -7.326793
 H         -13.601079      -36.685989       -8.408752
 H         -13.901151      -38.395710       -8.782031
 H         -13.480377      -38.501133       -4.895181
 H         -13.598150      -40.287174       -5.123760
 H         -15.716890      -37.590683       -7.677951
 H         -14.827295      -36.885265       -6.375749
 H         -15.727029      -38.879856       -5.541933
 H         -15.280858      -39.858284       -6.954382
