20
 generated by VMD
 C         -41.873432     -101.956978      -33.774944
 N         -40.754971     -101.911736      -34.055386
 H         -39.227413     -103.715324      -32.688255
 H         -42.767574     -102.287361      -33.383556
 C         -38.308144     -103.874817      -32.199356
 C         -37.052208     -103.446297      -33.101383
 C         -37.988880     -104.514290      -30.949579
 C         -35.804996     -103.055962      -32.331985
 C         -36.780975     -103.760925      -30.267462
 C         -35.557327     -103.876411      -31.068485
 H         -37.305267     -102.648445      -33.829525
 H         -36.779308     -104.346710      -33.675148
 H         -38.703747     -104.266975      -30.118774
 H         -37.832531     -105.593788      -31.038017
 H         -35.875053     -101.937706      -32.228096
 H         -34.882919     -103.241005      -33.030430
 H         -36.621632     -104.202728      -29.274632
 H         -37.124931     -102.764717      -30.096434
 H         -34.619568     -103.366051      -30.678322
 H         -35.225636     -104.917870      -31.286333
