20
 generated by VMD
 C         -30.123596      -89.506081      -25.684732
 N         -29.190369      -90.117233      -26.043989
 H         -32.091194      -91.528015      -26.892935
 H         -30.938805      -88.846001      -25.444082
 C         -32.842510      -90.776299      -27.194181
 C         -34.259262      -91.157059      -27.279900
 C         -32.535789      -89.579597      -28.016214
 C         -35.231651      -90.032990      -26.867800
 C         -33.530231      -88.436752      -27.895361
 C         -35.018959      -88.840218      -27.685843
 H         -34.397984      -92.011772      -26.637371
 H         -34.321239      -91.365990      -28.377682
 H         -31.525753      -89.232201      -27.680689
 H         -32.491066      -89.739510      -29.122595
 H         -35.036556      -89.939720      -25.769688
 H         -36.273251      -90.360458      -26.843332
 H         -33.361221      -87.795372      -28.764137
 H         -33.315441      -87.850266      -27.000280
 H         -35.584278      -87.927780      -27.358442
 H         -35.266640      -89.128311      -28.870800
