20
 generated by VMD
 C         -28.351830      -84.247856      -27.070349
 N         -27.625710      -83.440636      -26.627848
 H         -31.766098      -84.344208      -26.208517
 H         -29.087921      -84.877670      -27.382156
 C         -31.559551      -85.306564      -25.795353
 C         -31.495119      -85.408356      -24.296818
 C         -31.906900      -86.501122      -26.548698
 C         -32.747009      -85.990845      -23.694813
 C         -33.251762      -87.089752      -26.014593
 C         -33.339451      -87.295044      -24.434666
 H         -31.209351      -84.451546      -23.860678
 H         -30.617188      -86.099991      -24.115383
 H         -31.888372      -86.278122      -27.678299
 H         -31.189413      -87.285881      -26.350908
 H         -33.554237      -85.286064      -23.790537
 H         -32.383099      -86.218788      -22.602079
 H         -33.318565      -88.030220      -26.586153
 H         -34.058857      -86.490562      -26.302908
 H         -34.365757      -87.419991      -24.295729
 H         -32.855091      -88.138138      -23.958683
