20
 generated by VMD
 C         -51.350590     -130.025299      -45.042873
 N         -51.736416     -129.325150      -45.898556
 H         -48.356796     -129.917191      -43.300552
 H         -51.087139     -130.718750      -44.276115
 C         -48.050877     -129.931412      -42.319885
 C         -47.880531     -131.320633      -41.714947
 C         -47.412189     -128.839462      -41.571949
 C         -46.522747     -131.614151      -41.021969
 C         -46.028980     -129.131058      -41.042763
 C         -46.074799     -130.420624      -40.187519
 H         -48.188606     -131.979019      -42.418468
 H         -48.594315     -131.368027      -40.830784
 H         -47.398312     -128.014297      -42.305687
 H         -48.116344     -128.629593      -40.865894
 H         -45.947392     -131.871948      -41.913044
 H         -46.724659     -132.448074      -40.230274
 H         -45.833988     -128.296021      -40.426651
 H         -45.233250     -129.062378      -41.841705
 H         -45.059891     -130.569214      -39.808910
 H         -46.627159     -130.322891      -39.231342
