20
 generated by VMD
 C         -30.265625      -92.888351      -25.076904
 N         -30.288233      -93.812782      -25.810467
 H         -33.591885      -91.280548      -26.361519
 H         -30.314022      -91.917473      -24.454096
 C         -33.911499      -91.317505      -27.384142
 C         -35.084789      -92.192986      -27.603302
 C         -33.282001      -90.790657      -28.571226
 C         -36.094746      -91.528473      -28.598160
 C         -34.267685      -90.107903      -29.441914
 C         -35.343822      -91.174118      -29.912107
 H         -35.668938      -92.441406      -26.808969
 H         -34.703972      -93.116753      -27.978979
 H         -32.505627      -90.123962      -28.234665
 H         -32.633801      -91.461395      -29.201332
 H         -36.545143      -90.626305      -28.077866
 H         -36.910690      -92.215492      -28.700283
 H         -33.687435      -89.763649      -30.355785
 H         -34.776772      -89.202980      -29.025183
 H         -36.208416      -90.783577      -30.417664
 H         -34.955635      -92.026932      -30.513103
