20
 generated by VMD
 C         -24.776857      -70.399117      -16.480185
 N         -24.990440      -70.867508      -15.451829
 H         -23.795925      -67.665550      -19.126448
 H         -24.728830      -69.849167      -17.498388
 C         -24.379110      -68.446732      -19.554668
 C         -23.765404      -69.277542      -20.741261
 C         -25.804449      -68.171028      -19.630314
 C         -24.797050      -70.251579      -21.484842
 C         -26.786516      -69.133759      -20.233234
 C         -26.239138      -69.632469      -21.569429
 H         -22.879864      -69.955872      -20.449398
 H         -23.533741      -68.456161      -21.344107
 H         -26.190317      -67.699455      -18.670517
 H         -25.974251      -67.353325      -20.431864
 H         -24.811373      -71.262329      -21.077271
 H         -24.421415      -70.389648      -22.565281
 H         -27.732548      -68.601273      -20.453987
 H         -26.964268      -69.957176      -19.517338
 H         -26.894012      -70.396523      -22.058752
 H         -26.082827      -68.814247      -22.304272
