20
 generated by VMD
 C         -48.290951     -133.579437      -47.355186
 N         -48.137608     -133.282913      -48.495243
 H         -49.295841     -134.124649      -44.240181
 H         -48.553074     -134.079361      -46.456825
 C         -49.958298     -134.911850      -43.807167
 C         -49.999977     -136.263000      -44.478691
 C         -50.878643     -134.563110      -42.656513
 C         -50.466396     -137.391144      -43.587990
 C         -51.286079     -135.754303      -41.763466
 C         -51.578011     -137.013977      -42.576408
 H         -49.072987     -136.542084      -45.085987
 H         -50.863018     -136.230148      -45.202888
 H         -50.422112     -133.855972      -41.977848
 H         -51.789570     -133.967728      -43.106552
 H         -49.568634     -137.715942      -42.979820
 H         -50.794113     -138.212341      -44.201797
 H         -52.122074     -135.294708      -41.217159
 H         -50.473164     -135.983566      -41.132175
 H         -51.942734     -137.839722      -42.004971
 H         -52.603619     -136.882370      -43.168049
