20
 generated by VMD
 C         -49.623241     -131.845352      -46.402882
 N         -50.241238     -132.349701      -47.277344
 H         -47.491604     -133.842270      -44.251465
 H         -48.749268     -131.456924      -45.886269
 C         -48.379745     -134.166672      -43.643162
 C         -49.114510     -135.380753      -43.969780
 C         -49.160454     -133.075119      -42.908611
 C         -49.733330     -135.942184      -42.663250
 C         -49.678654     -133.663055      -41.609131
 C         -50.504299     -134.876663      -41.843224
 H         -48.466213     -136.091232      -44.589840
 H         -49.961521     -135.073975      -44.544384
 H         -48.326054     -132.265869      -42.745884
 H         -49.963978     -132.642258      -43.507381
 H         -48.930000     -136.388794      -42.068283
 H         -50.225956     -136.844589      -43.008976
 H         -50.352837     -133.071396      -41.115971
 H         -48.782982     -133.834351      -41.037724
 H         -50.695179     -135.360214      -40.943878
 H         -51.351826     -134.565948      -42.394222
