20
 generated by VMD
 C         -31.276127      -75.724907      -21.633392
 N         -32.321346      -75.283165      -21.329933
 H         -27.898392      -75.282387      -20.107903
 H         -30.259460      -76.161438      -21.435013
 C         -26.883215      -75.257027      -20.574165
 C         -26.453045      -76.426079      -21.414845
 C         -25.928267      -74.087822      -20.380173
 C         -25.904636      -75.903557      -22.773129
 C         -25.381350      -73.679047      -21.781523
 C         -24.853310      -74.875305      -22.606478
 H         -27.298529      -77.076691      -21.639799
 H         -25.769581      -77.035019      -20.728958
 H         -26.664040      -73.320114      -20.028248
 H         -25.197695      -74.431343      -19.743742
 H         -26.641033      -75.420448      -23.385786
 H         -25.551167      -76.737938      -23.327625
 H         -24.569061      -72.912025      -21.713026
 H         -26.151663      -73.017738      -22.243849
 H         -24.427082      -74.581673      -23.571383
 H         -23.995127      -75.162811      -22.016567
