20
 generated by VMD
 C         -11.588873      -39.140366       -6.365936
 N         -11.630887      -38.920063       -7.442577
 H         -12.748777      -41.360931       -9.008361
 H         -13.964005      -40.077866       -8.460215
 C         -13.790824      -41.077568       -8.984401
 C         -14.515704      -42.051609       -8.014833
 C         -14.445854      -41.089081      -10.360975
 C         -15.986135      -41.759968       -7.898003
 C         -15.893365      -40.741371      -10.215182
 C         -16.656540      -41.695335       -9.275856
 H         -14.056708      -41.854755       -7.039292
 H         -14.290796      -43.079796       -8.353077
 H         -13.957038      -40.266785      -10.917259
 H         -14.232092      -42.042450      -10.849930
 H         -16.083891      -40.750072       -7.404737
 H         -16.445265      -42.541492       -7.311307
 H         -16.342554      -40.803669      -11.226986
 H         -16.133751      -39.772625       -9.869768
 H         -17.693880      -41.379135       -9.254305
 H         -16.757286      -42.687031       -9.695072
