20
 generated by VMD
 C         -68.263794     -194.334763      -66.410423
 N         -67.719955     -194.169815      -65.374527
 H         -70.298935     -191.038116      -66.568565
 H         -69.013756     -194.501022      -67.230598
 C         -71.338173     -191.149734      -66.219048
 C         -72.450073     -190.239502      -66.569016
 C         -71.529861     -192.092072      -65.045578
 C         -73.832413     -190.805496      -66.401749
 C         -72.881531     -191.950363      -64.424217
 C         -73.988152     -192.005203      -65.456505
 H         -72.420753     -189.782410      -67.514709
 H         -72.464989     -189.338867      -65.811501
 H         -71.245720     -193.135895      -65.417542
 H         -70.784340     -191.729797      -64.229614
 H         -74.127617     -191.150497      -67.441353
 H         -74.400948     -189.865570      -66.127991
 H         -72.985428     -191.057739      -63.707611
 H         -72.926544     -192.865570      -63.833607
 H         -73.949356     -192.911423      -66.031181
 H         -74.935669     -191.895081      -64.868805
