20
 generated by VMD
 C         -62.694637     -171.965057      -55.447788
 N         -62.284554     -173.077011      -55.260170
 H         -61.564175     -171.345062      -58.604031
 H         -62.963375     -170.961639      -55.701839
 C         -62.416092     -170.678360      -58.491669
 C         -62.402920     -169.402618      -57.883751
 C         -63.664742     -171.334763      -58.815983
 C         -63.617580     -168.558640      -57.989437
 C         -64.962036     -170.379868      -58.867313
 C         -65.003822     -169.141113      -57.920223
 H         -61.474537     -168.804138      -58.302734
 H         -62.194027     -169.568390      -56.890362
 H         -63.591087     -171.780899      -59.790577
 H         -63.964359     -172.056870      -58.071167
 H         -63.450470     -168.012299      -58.954010
 H         -63.437561     -167.788925      -57.136101
 H         -65.841812     -171.015350      -58.569344
 H         -65.083588     -170.018433      -59.913036
 H         -65.852402     -168.482437      -58.176090
 H         -65.120384     -169.421707      -56.906075
