20
 generated by VMD
 C         -22.954657      -53.498405      -13.819407
 N         -23.706652      -52.866684      -14.535338
 H         -20.733530      -55.012917      -14.561981
 H         -22.477057      -54.214062      -13.408385
 C         -19.788799      -55.008518      -14.063241
 C         -19.149738      -53.671970      -13.801797
 C         -18.727566      -56.108814      -14.307803
 C         -17.948471      -53.788094      -12.839244
 C         -17.417837      -56.195080      -13.519853
 C         -16.863480      -54.796696      -13.276550
 H         -19.895216      -52.964157      -13.338137
 H         -18.858345      -53.073624      -14.749893
 H         -19.299528      -57.090237      -14.246286
 H         -18.416590      -55.980495      -15.368956
 H         -18.421698      -54.072834      -11.874096
 H         -17.423944      -52.847511      -12.630750
 H         -16.704372      -56.804047      -14.102560
 H         -17.578524      -56.696247      -12.541169
 H         -16.017622      -54.786934      -12.589560
 H         -16.431562      -54.471706      -14.174479
