20
 generated by VMD
 C         -58.799473     -161.304230      -56.533276
 N         -58.500248     -160.169937      -56.843494
 H         -59.298306     -164.470520      -55.101093
 H         -59.071545     -162.332855      -56.224617
 C         -59.984535     -163.766098      -54.613064
 C         -59.606922     -163.340973      -53.213074
 C         -61.374916     -163.815216      -54.951477
 C         -60.453899     -162.100235      -52.669258
 C         -61.923969     -162.490982      -54.557579
 C         -61.863861     -162.286850      -53.066605
 H         -58.514458     -163.042084      -53.204048
 H         -59.424397     -164.193695      -52.449753
 H         -61.453865     -163.944916      -55.982113
 H         -61.790142     -164.714920      -54.440258
 H         -59.921505     -161.253418      -53.138554
 H         -60.427013     -162.143890      -51.622993
 H         -62.944206     -162.452972      -54.749348
 H         -61.292667     -161.808182      -55.057354
 H         -62.492336     -161.438782      -52.813553
 H         -62.301083     -163.187088      -52.604649
