20
 generated by VMD
 C         -80.061188     -205.467743      -71.532639
 N         -80.030914     -206.623642      -71.546135
 H         -77.315987     -203.233078      -70.759354
 H         -79.956894     -204.431152      -71.713974
 C         -76.340530     -203.508560      -70.356117
 C         -75.179802     -202.553467      -70.596237
 C         -76.019447     -204.931686      -70.134262
 C         -73.805130     -203.146042      -70.356293
 C         -74.956139     -205.071503      -69.126793
 C         -73.677994     -204.497650      -69.682808
 H         -75.370575     -201.783142      -69.893135
 H         -75.328949     -202.167328      -71.634705
 H         -76.866783     -205.540115      -69.667336
 H         -75.866684     -205.293686      -71.207291
 H         -73.240112     -202.489777      -69.705025
 H         -73.221268     -203.219559      -71.282349
 H         -74.809303     -206.077545      -68.893028
 H         -75.268318     -204.588730      -68.129311
 H         -73.121063     -204.251892      -68.783310
 H         -73.070450     -205.263748      -70.282547
