20
 generated by VMD
 C         -64.815323     -175.437744      -55.848122
 N         -64.135323     -176.089325      -56.485279
 H         -65.744965     -174.348068      -58.966820
 H         -65.476364     -174.872177      -55.190136
 C         -64.952660     -173.505081      -58.963219
 C         -65.323601     -172.216522      -58.187714
 C         -63.948162     -173.324036      -60.182152
 C         -64.456459     -170.942062      -58.441238
 C         -63.117760     -172.026505      -60.112370
 C         -63.858387     -170.777878      -59.853874
 H         -65.374489     -172.242767      -57.113106
 H         -66.383369     -171.842438      -58.418873
 H         -63.416378     -174.285934      -60.453560
 H         -64.560768     -173.185013      -61.070885
 H         -63.628002     -171.065338      -57.806595
 H         -64.997292     -170.072952      -58.152054
 H         -62.534130     -171.959015      -61.060936
 H         -62.374695     -171.982788      -59.349960
 H         -63.191029     -169.846222      -59.859386
 H         -64.707451     -170.675705      -60.521774
