20
 generated by VMD
 C         -59.326305     -158.565781      -57.412834
 N         -58.552231     -158.265656      -58.162743
 H         -59.938068     -158.804108      -53.988907
 H         -60.082790     -158.845657      -56.741535
 C         -59.784885     -159.683350      -53.317093
 C         -58.519623     -160.000916      -52.589348
 C         -60.620209     -160.905594      -53.611660
 C         -58.720287     -160.561310      -51.269371
 C         -60.819416     -161.729202      -52.238338
 C         -59.570259     -161.855667      -51.272488
 H         -58.010235     -158.976044      -52.534660
 H         -57.842514     -160.784378      -53.092384
 H         -61.641644     -160.552002      -53.968792
 H         -60.312325     -161.578461      -54.325108
 H         -59.310822     -159.840469      -50.700535
 H         -57.770809     -160.646210      -50.616417
 H         -61.068348     -162.733963      -52.513851
 H         -61.632980     -161.230453      -51.754128
 H         -59.884716     -162.300720      -50.285927
 H         -58.931835     -162.781219      -51.688225
