20
 generated by VMD
 C         -79.000870     -206.744232      -75.386581
 N         -79.584389     -207.088974      -76.327774
 H         -78.457047     -209.727661      -73.191490
 H         -78.415718     -206.505798      -74.577080
 C         -77.881226     -209.808838      -72.230225
 C         -76.741234     -208.831467      -71.947144
 C         -78.263474     -210.894897      -71.245346
 C         -76.691940     -208.312851      -70.598930
 C         -78.335411     -210.166992      -69.804153
 C         -76.888573     -209.491058      -69.529137
 H         -76.852943     -208.006943      -72.661980
 H         -75.796669     -209.380142      -72.204300
 H         -79.134605     -211.580490      -71.361694
 H         -77.428032     -211.597244      -71.258186
 H         -77.486748     -207.565002      -70.450775
 H         -75.699432     -207.834946      -70.532043
 H         -78.508759     -211.037689      -69.137268
 H         -79.151161     -209.470535      -69.640968
 H         -77.176933     -209.056686      -68.565262
 H         -75.986534     -210.091751      -69.481407
