20
 generated by VMD
 C         -58.350147     -151.125305      -49.299335
 N         -58.550476     -152.039490      -48.690536
 H         -55.754654     -150.027893      -47.967903
 H         -58.227970     -150.287796      -49.946373
 C         -55.135353     -149.478043      -48.719379
 C         -54.279808     -150.515121      -49.442322
 C         -55.046135     -147.965958      -48.917847
 C         -54.160591     -150.078247      -50.922165
 C         -54.843002     -147.654190      -50.433895
 C         -53.860954     -148.585068      -51.082378
 H         -54.869678     -151.409531      -49.564323
 H         -53.222389     -150.622330      -49.026047
 H         -55.997456     -147.528168      -48.433304
 H         -54.095024     -147.706772      -48.411629
 H         -55.137161     -150.319595      -51.421272
 H         -53.376686     -150.753357      -51.336628
 H         -54.590168     -146.572449      -50.707867
 H         -55.845543     -147.743881      -51.068573
 H         -53.705116     -148.373215      -52.221073
 H         -52.895630     -148.374954      -50.634472
