20
 generated by VMD
 C         -40.628387     -100.236496      -30.269066
 N         -41.124298     -100.427048      -29.222424
 H         -37.501419     -100.479645      -30.382643
 H         -40.286072      -99.931747      -31.272579
 C         -36.471352     -100.081947      -30.787624
 C         -36.168747      -99.928612      -32.370213
 C         -35.303978     -100.099068      -29.809559
 C         -35.086529      -98.802261      -32.526012
 C         -34.287266      -98.904282      -29.970259
 C         -33.986000      -98.707108      -31.445997
 H         -37.046535      -99.721390      -32.930561
 H         -35.668018     -100.837761      -32.810261
 H         -35.702847     -100.034752      -28.845217
 H         -34.805866     -101.097809      -29.933075
 H         -35.658836      -97.875092      -32.534821
 H         -34.718006      -98.865257      -33.516552
 H         -33.367004      -99.244003      -29.471344
 H         -34.799931      -97.971291      -29.557676
 H         -33.654579      -97.632736      -31.562946
 H         -33.212128      -99.433174      -31.775478
