20
 generated by VMD
 C         -59.880939     -152.346207      -51.059155
 N         -60.761272     -153.128036      -51.226509
 H         -56.726730     -152.316422      -48.768723
 H         -59.061546     -151.620712      -50.846275
 C         -55.928135     -151.899582      -49.379971
 C         -54.710926     -152.690353      -49.679157
 C         -55.922348     -150.360992      -49.670376
 C         -54.116760     -152.211685      -50.875851
 C         -55.176224     -150.003159      -50.870613
 C         -53.891811     -150.708298      -50.905136
 H         -54.872551     -153.788086      -49.663929
 H         -54.033180     -152.590347      -48.903019
 H         -57.003284     -150.105576      -49.914738
 H         -55.478771     -149.721619      -48.854195
 H         -54.746021     -152.473282      -51.719254
 H         -53.242725     -152.839508      -51.185303
 H         -55.073254     -148.967972      -50.983318
 H         -55.591763     -150.560715      -51.780376
 H         -53.419426     -150.612823      -51.855694
 H         -53.073406     -150.417130      -50.188023
