20
 generated by VMD
 C         -77.330772     -203.304703      -67.642845
 N         -77.914368     -204.268097      -67.443810
 H         -75.143387     -201.174255      -67.660439
 H         -76.889336     -202.423584      -68.131386
 C         -74.727943     -200.648285      -68.505814
 C         -74.986130     -199.183990      -68.622139
 C         -73.816582     -201.473083      -69.421486
 C         -73.927780     -198.522354      -69.562798
 C         -72.843475     -200.656952      -70.282936
 C         -73.578300     -199.248444      -70.813271
 H         -75.070557     -198.788467      -67.583725
 H         -76.003265     -199.088226      -69.098686
 H         -73.314651     -202.231064      -68.725136
 H         -74.540802     -202.080246      -69.973907
 H         -73.023972     -198.289276      -69.045998
 H         -74.282852     -197.534897      -69.866875
 H         -72.624336     -201.341217      -71.092522
 H         -71.939339     -200.329819      -69.845634
 H         -72.862915     -198.675415      -71.462440
 H         -74.501419     -199.449158      -71.366859
