20
 generated by VMD
 C         -37.101372      -98.286598      -25.756268
 N         -36.321091      -98.451103      -26.603310
 H         -36.117767      -96.005951      -28.538250
 H         -37.737583      -98.248253      -24.770678
 C         -35.651588      -95.445473      -29.355337
 C         -35.698021      -96.437302      -30.571760
 C         -34.395504      -94.665604      -29.176205
 C         -35.149876      -95.656769      -31.804140
 C         -33.815098      -94.066429      -30.459305
 C         -33.762493      -95.087349      -31.594057
 H         -36.778042      -96.690720      -30.781633
 H         -35.170040      -97.365036      -30.333786
 H         -34.526642      -93.711998      -28.578108
 H         -33.648960      -95.307152      -28.668509
 H         -35.793285      -94.792519      -32.222862
 H         -34.996719      -96.313911      -32.645477
 H         -32.757668      -93.673172      -30.249256
 H         -34.508339      -93.245560      -30.713264
 H         -33.435883      -94.541466      -32.605953
 H         -33.052296      -95.901588      -31.436003
