20
 generated by VMD
 C         -70.268272     -182.768127      -65.915398
 N         -71.114990     -183.549973      -65.621559
 H         -67.745377     -182.336227      -63.213734
 H         -69.471260     -182.130081      -66.268463
 C         -67.263893     -182.185654      -62.219749
 C         -67.635635     -183.057281      -61.047611
 C         -67.070015     -180.739548      -61.716091
 C         -66.620682     -183.010834      -59.880432
 C         -66.105080     -180.702789      -60.486687
 C         -66.464180     -181.634781      -59.362099
 H         -67.852448     -184.115524      -61.473747
 H         -68.629936     -182.872406      -60.577785
 H         -66.612885     -180.112991      -62.521683
 H         -68.013321     -180.315109      -61.603928
 H         -65.588409     -183.230438      -60.213943
 H         -67.042686     -183.629959      -59.169994
 H         -66.166321     -179.648788      -60.196850
 H         -65.053352     -180.908524      -60.653160
 H         -65.746368     -181.477295      -58.521042
 H         -67.391747     -181.240692      -58.996307
