20
 generated by VMD
 C         -67.626472     -179.488800      -58.571217
 N         -68.441582     -180.232635      -58.153557
 H         -66.976303     -176.495605      -59.644836
 H         -66.870369     -178.780579      -58.873138
 C         -66.019257     -176.004166      -59.946590
 C         -65.944229     -175.095139      -61.160351
 C         -64.656357     -176.529602      -59.518093
 C         -65.036125     -173.905197      -60.828697
 C         -63.665413     -175.333710      -59.384018
 C         -63.589420     -174.468414      -60.666340
 H         -66.902847     -174.573456      -61.218208
 H         -65.748703     -175.791916      -61.954201
 H         -64.689514     -177.074982      -58.473606
 H         -64.307304     -177.254471      -60.284683
 H         -65.417274     -173.343933      -60.061573
 H         -64.967285     -173.411179      -61.776936
 H         -62.753151     -175.721573      -59.034031
 H         -64.026604     -174.698898      -58.553310
 H         -62.859684     -173.619019      -60.668282
 H         -63.230499     -175.089355      -61.457973
