20
 generated by VMD
 C         -59.080597     -158.814011      -57.309734
 N         -58.779121     -158.145462      -58.272758
 H         -59.702477     -159.193863      -54.108967
 H         -59.360458     -159.498932      -56.469883
 C         -59.610767     -160.105011      -53.584156
 C         -58.524689     -160.254425      -52.592949
 C         -60.562378     -161.219620      -53.668423
 C         -59.001289     -160.678452      -51.254078
 C         -61.015739     -161.598267      -52.250626
 C         -59.762409     -161.925980      -51.434010
 H         -57.945465     -159.384308      -52.481647
 H         -57.933380     -160.977203      -53.203445
 H         -61.490799     -161.040863      -54.119473
 H         -60.127594     -162.034103      -54.274441
 H         -59.563869     -159.971390      -50.683529
 H         -58.230846     -160.907104      -50.367733
 H         -61.671803     -162.472519      -52.268173
 H         -61.636681     -160.741776      -51.918625
 H         -60.149731     -162.300110      -50.473007
 H         -59.182831     -162.853912      -51.813015
