20
 generated by VMD
 C         -79.081810     -208.148560      -75.362106
 N         -78.406265     -207.272964      -75.668770
 H         -79.162430     -209.947922      -73.426552
 H         -79.705139     -208.969833      -75.341324
 C         -78.515617     -210.045792      -72.586632
 C         -77.283630     -209.192902      -72.382713
 C         -78.883522     -211.066177      -71.469536
 C         -77.082855     -208.686874      -70.911278
 C         -78.411240     -210.748062      -70.079636
 C         -77.065971     -209.936844      -70.001144
 H         -77.347679     -208.305847      -73.020737
 H         -76.468056     -209.906494      -72.611542
 H         -79.951271     -211.212021      -71.492691
 H         -78.481674     -212.072372      -71.687225
 H         -77.937607     -208.015198      -70.683517
 H         -76.094078     -208.213379      -70.712791
 H         -78.394691     -211.536835      -69.306213
 H         -79.106644     -209.939438      -69.764336
 H         -77.014351     -209.445282      -69.035332
 H         -76.188866     -210.553970      -70.112160
