20
 generated by VMD
 C         -41.211018     -102.388733      -35.266747
 N         -41.556732     -103.251930      -35.956551
 H         -39.517982     -104.764236      -33.509529
 H         -41.015388     -101.562248      -34.515251
 C         -38.699348     -105.035042      -32.734627
 C         -37.302170     -104.312912      -32.945061
 C         -38.841145     -106.144943      -31.789701
 C         -36.478516     -104.455582      -31.661831
 C         -37.832008     -106.397209      -30.706287
 C         -36.540485     -105.919136      -31.164682
 H         -37.490967     -103.291817      -33.238468
 H         -36.635761     -104.703636      -33.772316
 H         -39.825768     -106.086983      -31.360537
 H         -38.804443     -107.132988      -32.358334
 H         -36.687904     -103.655449      -30.892153
 H         -35.382866     -104.290314      -31.776037
 H         -37.840790     -107.409279      -30.427176
 H         -38.138580     -105.800034      -29.802462
 H         -35.880810     -105.875229      -30.261209
 H         -36.054382     -106.642616      -31.867983
