20
 generated by VMD
 C         -70.202164     -181.108810      -62.471619
 N         -70.633446     -180.075195      -62.724365
 H         -66.756264     -181.831451      -60.750256
 H         -69.785828     -182.022964      -62.175159
 C         -66.257973     -180.832840      -60.480259
 C         -64.797676     -180.668274      -60.374184
 C         -67.178154     -179.684158      -60.291992
 C         -64.268265     -179.275803      -60.722576
 C         -66.706093     -178.381470      -61.057453
 C         -65.206764     -178.098618      -60.523594
 H         -64.537949     -181.359573      -61.145290
 H         -64.476143     -180.868607      -59.353569
 H         -68.196426     -179.875900      -60.594925
 H         -67.164680     -179.514709      -59.176014
 H         -64.058289     -179.315598      -61.864376
 H         -63.215225     -179.113083      -60.242970
 H         -67.369308     -177.534180      -60.882401
 H         -66.588997     -178.524216      -62.107693
 H         -64.990257     -177.319580      -61.250160
 H         -65.226295     -177.628250      -59.503628
