20
 generated by VMD
 C         -10.510854      -36.228519       -7.459340
 N          -9.848817      -36.998940       -7.864302
 H         -13.280614      -38.618675       -8.051120
 H         -14.385594      -38.887875       -6.763523
 C         -14.112299      -39.167435       -7.743890
 C         -13.630496      -40.598530       -7.743110
 C         -15.157894      -38.924786       -8.793042
 C         -14.751872      -41.529518       -7.495273
 C         -16.275511      -39.904308       -8.738173
 C         -15.800178      -41.341209       -8.556530
 H         -12.739393      -40.643036       -7.107697
 H         -13.118257      -40.861286       -8.691934
 H         -15.558702      -37.871132       -8.768685
 H         -14.643260      -38.933365       -9.802204
 H         -15.114635      -41.434036       -6.424397
 H         -14.484838      -42.592514       -7.555989
 H         -16.861755      -39.940781       -9.698784
 H         -16.981665      -39.720787       -7.953683
 H         -16.713116      -41.896439       -8.295938
 H         -15.426726      -41.761608       -9.516463
