20
 generated by VMD
 C         -79.004906     -207.413376      -75.333130
 N         -79.999802     -206.969040      -75.604950
 H         -77.615326     -209.229980      -73.383644
 H         -77.960442     -207.799271      -75.276474
 C         -77.602348     -208.978897      -72.320312
 C         -76.311050     -208.318619      -71.753136
 C         -78.242111     -210.204147      -71.512138
 C         -76.364166     -208.117020      -70.196068
 C         -78.229195     -209.790085      -70.022377
 C         -76.891319     -209.412964      -69.495941
 H         -76.357552     -207.258148      -72.110374
 H         -75.330956     -208.735580      -72.061485
 H         -79.268005     -210.319031      -71.829033
 H         -77.679108     -211.188644      -71.709427
 H         -77.165131     -207.313339      -70.046974
 H         -75.398827     -207.663269      -69.902657
 H         -78.324615     -210.675461      -69.457962
 H         -79.069420     -209.081558      -69.680252
 H         -76.951973     -209.362610      -68.410301
 H         -76.114960     -210.126541      -69.659897
