20
 generated by VMD
 C         -11.269504      -40.824287       -7.453216
 N         -11.650896      -40.420113       -6.463253
 H         -13.688359      -40.788960       -8.508392
 H         -15.079334      -39.993618       -9.386745
 C         -14.656325      -40.952488       -9.002670
 C         -15.677510      -41.680168       -8.097831
 C         -14.419629      -41.788269      -10.311865
 C         -16.962498      -42.101074       -8.800917
 C         -15.647773      -42.393208      -10.991320
 C         -16.650190      -43.006657      -10.011014
 H         -15.961372      -41.040779       -7.208636
 H         -15.129743      -42.620129       -7.733625
 H         -13.821176      -41.173759      -11.066637
 H         -13.760637      -42.681698      -10.138567
 H         -17.565811      -41.218327       -9.133591
 H         -17.610788      -42.582611       -8.090870
 H         -15.333031      -43.155365      -11.661364
 H         -16.129150      -41.591118      -11.641036
 H         -17.551519      -43.315716      -10.495008
 H         -16.209621      -43.918289       -9.642647
