20
 generated by VMD
 C         -32.575336      -95.964554      -25.511507
 N         -33.115303      -95.673897      -24.526634
 H         -34.098862      -94.165810      -27.704575
 H         -32.082535      -96.399139      -26.382687
 C         -34.413792      -93.545807      -28.489010
 C         -35.891586      -93.583168      -28.908072
 C         -33.336590      -93.474319      -29.607113
 C         -36.176319      -92.330101      -29.741756
 C         -33.754581      -92.109489      -30.314009
 C         -35.168163      -92.199165      -30.869419
 H         -36.603352      -93.717186      -28.049778
 H         -35.974468      -94.523590      -29.538227
 H         -32.326866      -93.335648      -29.195290
 H         -33.236919      -94.344475      -30.291445
 H         -36.075619      -91.368073      -29.115992
 H         -37.115551      -92.374641      -30.232105
 H         -33.066776      -92.043381      -31.160370
 H         -33.587086      -91.285736      -29.696215
 H         -35.305706      -91.337296      -31.399811
 H         -35.196152      -93.139511      -31.460560
