20
 generated by VMD
 C          -7.504367      -23.506432        1.879633
 N          -7.554528      -22.945023        2.857602
 H          -8.999352      -23.584696       -1.694640
 H          -9.460381      -22.424103       -2.997970
 C          -8.596153      -22.789268       -2.364504
 C          -7.708582      -23.613495       -3.300593
 C          -7.822295      -21.750349       -1.573165
 C          -6.924141      -22.750154       -4.214656
 C          -7.071417      -20.852236       -2.581623
 C          -6.180132      -21.672598       -3.533661
 H          -8.404917      -24.226179       -3.881479
 H          -6.972266      -24.280315       -2.759361
 H          -8.499817      -21.123257       -1.041082
 H          -7.237843      -22.272923       -0.813407
 H          -7.607653      -22.372246       -5.032588
 H          -6.292225      -23.381285       -4.869822
 H          -6.489996      -20.104353       -2.039791
 H          -7.789231      -20.211117       -3.125919
 H          -5.704654      -20.985399       -4.265819
 H          -5.361097      -22.106203       -2.902396
