20
 generated by VMD
 C         -31.529030      -76.745987      -24.778952
 N         -31.985905      -77.005196      -25.840054
 H         -29.405083      -77.109207      -22.346592
 H         -31.198120      -76.497284      -23.756227
 C         -28.547924      -77.797852      -22.225521
 C         -27.445843      -77.922241      -23.208984
 C         -28.819460      -78.766052      -21.106031
 C         -26.153067      -78.551033      -22.686554
 C         -27.367016      -79.204376      -20.553709
 C         -26.330767      -79.604942      -21.609964
 H         -27.311926      -77.024376      -23.968786
 H         -27.907354      -78.696701      -23.938421
 H         -29.522545      -78.457718      -20.283888
 H         -29.385284      -79.681168      -21.501003
 H         -25.652502      -77.723770      -22.120455
 H         -25.528173      -78.972168      -23.544403
 H         -27.484247      -80.048965      -19.759308
 H         -27.028202      -78.225792      -19.991503
 H         -25.424994      -79.711243      -21.058369
 H         -26.638584      -80.622208      -21.996056
