20
 generated by VMD
 C          -3.736838      -17.824278        1.955700
 N          -3.111109      -18.445509        2.639668
 H          -5.605911      -20.458822        0.544291
 H          -6.063311      -21.243771       -0.946395
 C          -6.151235      -20.308683       -0.392160
 C          -5.529461      -19.080133       -1.071020
 C          -7.634135      -20.046371       -0.152850
 C          -6.293427      -18.472317       -2.278694
 C          -8.373417      -19.339256       -1.289911
 C          -7.646847      -18.145279       -1.895474
 H          -4.487551      -19.298872       -1.496758
 H          -5.436066      -18.345839       -0.275801
 H          -8.065722      -20.926970        0.095730
 H          -7.643784      -19.334843        0.618865
 H          -6.303444      -19.153770       -3.071354
 H          -5.763847      -17.614111       -2.652697
 H          -9.414621      -19.114515       -0.994030
 H          -8.438953      -20.006248       -2.135246
 H          -8.220745      -17.838818       -2.763041
 H          -7.656850      -17.369818       -1.107466
