20
 generated by VMD
 C         -11.426974      -41.984592       -6.170500
 N         -10.995180      -41.271244       -6.902454
 H         -14.666560      -41.029327       -8.281157
 H         -15.565609      -40.300800       -9.800164
 C         -15.279415      -41.244793       -9.208416
 C         -16.565437      -41.912140       -8.650684
 C         -14.596160      -42.263550      -10.191002
 C         -17.466579      -42.446693       -9.722856
 C         -15.486161      -43.006660      -11.199771
 C         -16.784187      -43.568638      -10.590725
 H         -17.068380      -41.269917       -7.942884
 H         -16.235716      -42.781872       -8.028538
 H         -13.754075      -41.799053      -10.634724
 H         -14.082929      -43.022869       -9.581070
 H         -17.875000      -41.658413      -10.377296
 H         -18.417683      -42.840355       -9.337132
 H         -14.911988      -43.891014      -11.577678
 H         -15.780598      -42.350609      -12.026937
 H         -17.390583      -43.899406      -11.434402
 H         -16.543509      -44.397636       -9.872432
