20
 generated by VMD
 C         -19.718445      -61.466236      -16.735371
 N         -19.794165      -60.499928      -16.148243
 H         -22.150723      -62.200466      -18.354946
 H         -19.555216      -62.492302      -17.229879
 C         -22.726370      -62.970360      -17.825790
 C         -24.020237      -63.360744      -18.485168
 C         -22.979858      -63.001511      -16.362991
 C         -24.681450      -64.664856      -18.220558
 C         -23.492077      -64.300781      -15.840201
 C         -24.714489      -64.763451      -16.684486
 H         -23.828434      -63.233749      -19.528889
 H         -24.720270      -62.594311      -18.185463
 H         -22.077686      -62.774120      -15.825398
 H         -23.751131      -62.236134      -16.076504
 H         -24.100004      -65.597206      -18.685995
 H         -25.623819      -64.728874      -18.790434
 H         -23.777788      -64.235718      -14.770865
 H         -22.712305      -65.025024      -16.063940
 H         -24.932951      -65.777092      -16.299793
 H         -25.503748      -64.171875      -16.199677
