20
 generated by VMD
 C         -68.262253     -188.510818      -66.900436
 N         -68.633545     -187.857559      -67.773354
 H         -68.263428     -186.979691      -63.527702
 H         -67.903610     -188.964890      -65.944504
 C         -69.245628     -187.455048      -63.471432
 C         -69.301323     -188.738037      -62.661968
 C         -70.456459     -186.571365      -63.669125
 C         -70.616936     -189.510818      -62.987984
 C         -71.724716     -187.419037      -63.720932
 C         -71.817299     -188.574966      -62.845036
 H         -69.094727     -188.452087      -61.679390
 H         -68.569580     -189.433212      -62.893211
 H         -70.506638     -185.970520      -62.762287
 H         -70.402451     -186.001526      -64.704575
 H         -70.736633     -190.337906      -62.237820
 H         -70.509705     -190.056610      -63.920219
 H         -71.785828     -187.743149      -64.720718
 H         -72.591682     -186.830994      -63.464252
 H         -71.956322     -188.183777      -61.822071
 H         -72.777954     -188.974045      -62.964687
