20
 generated by VMD
 C         -51.425911     -145.703796      -43.989067
 N         -51.371708     -146.429947      -44.881702
 H         -53.391628     -145.058411      -46.754387
 H         -51.627300     -145.021973      -43.220863
 C         -53.681660     -144.345978      -47.553093
 C         -52.785069     -144.362930      -48.702789
 C         -54.876518     -143.413498      -47.364590
 C         -53.434269     -143.934631      -49.957821
 C         -55.468220     -142.915863      -48.711166
 C         -54.333477     -142.663956      -49.817921
 H         -52.273518     -145.369049      -48.911049
 H         -51.910698     -143.641800      -48.364662
 H         -55.612278     -144.046555      -46.825279
 H         -54.623341     -142.518600      -46.923527
 H         -54.122772     -144.703461      -50.114449
 H         -52.744442     -143.945709      -50.717316
 H         -56.003227     -141.972244      -48.546917
 H         -56.114594     -143.784378      -49.041977
 H         -54.877560     -142.443939      -50.772839
 H         -53.719513     -141.680145      -49.567730
