20
 generated by VMD
 C          -1.753185      -12.984644        0.553442
 N          -1.321311      -13.886766        1.057010
 H          -3.624440      -14.968241        1.710502
 H          -4.471338      -14.936121        0.196275
 C          -4.492609      -15.329548        1.192306
 C          -5.747897      -14.758904        1.882254
 C          -4.529085      -16.841934        0.938390
 C          -6.964961      -15.238715        1.130051
 C          -5.797858      -17.199234        0.170686
 C          -6.997505      -16.771349        0.954927
 H          -5.627052      -13.689297        1.944605
 H          -5.792083      -15.067754        2.971179
 H          -3.647219      -17.145842        0.302153
 H          -4.496578      -17.443508        1.895343
 H          -7.093636      -14.716966        0.188518
 H          -7.868390      -15.002796        1.673002
 H          -5.817127      -18.279913       -0.067391
 H          -5.718035      -16.739992       -0.789717
 H          -7.903360      -17.024975        0.377612
 H          -7.138262      -17.263071        1.919106
