20
 generated by VMD
 C         -12.825845      -28.034367       -4.103380
 N         -13.843805      -27.661222       -4.374908
 H         -10.410880      -29.267439       -2.417073
 H         -10.583588      -28.028250       -3.552153
 C          -9.877253      -28.746868       -3.203190
 C          -9.443675      -29.599188       -4.399169
 C          -8.701056      -28.161362       -2.381289
 C          -8.303908      -28.880581       -5.241241
 C          -7.586242      -27.470558       -3.241096
 C          -7.129498      -28.475241       -4.341023
 H         -10.227747      -29.693523       -5.112713
 H          -8.983070      -30.586123       -4.007117
 H          -9.122013      -27.424250       -1.735832
 H          -8.346409      -28.971470       -1.785509
 H          -8.801211      -27.960600       -5.701704
 H          -8.020143      -29.624903       -6.024514
 H          -6.749067      -27.277382       -2.610115
 H          -7.995775      -26.559952       -3.764534
 H          -6.355073      -27.931358       -4.894684
 H          -6.567675      -29.219080       -3.826783
