20
 generated by VMD
 C         -41.545994     -102.406250      -35.828678
 N         -41.500366     -103.562019      -35.775131
 H         -39.191410     -104.521751      -33.430344
 H         -41.949871     -101.378006      -35.839653
 C         -38.505226     -105.094383      -32.866833
 C         -37.138092     -104.690445      -32.917004
 C         -38.969013     -106.445427      -32.219242
 C         -36.563618     -104.905128      -31.569866
 C         -38.274067     -106.755692      -30.920570
 C         -36.741215     -106.252396      -30.917034
 H         -37.251057     -103.648750      -33.211773
 H         -36.665356     -105.226593      -33.790394
 H         -40.021564     -106.463921      -32.218262
 H         -38.679924     -107.230499      -33.037201
 H         -36.766018     -103.969223      -30.900888
 H         -35.423088     -104.857117      -31.605574
 H         -38.247505     -107.803993      -30.656265
 H         -38.920002     -106.251556      -30.097612
 H         -36.243820     -106.380623      -29.908142
 H         -36.282421     -107.009819      -31.537571
