20
 generated by VMD
 C         -80.097321     -206.850540      -74.031113
 N         -80.545120     -207.014145      -75.061821
 H         -77.091507     -206.942032      -72.894608
 H         -79.453606     -206.691330      -73.179245
 C         -76.635574     -207.473801      -72.010780
 C         -75.324768     -207.165436      -71.434731
 C         -77.293610     -208.704666      -71.377861
 C         -75.472343     -206.859192      -69.924126
 C         -77.644241     -208.358459      -69.864189
 C         -76.351601     -208.022568      -69.220932
 H         -74.772331     -206.383377      -72.018303
 H         -74.632713     -208.029312      -71.395424
 H         -78.184464     -208.962936      -71.939247
 H         -76.522621     -209.527496      -71.498146
 H         -75.962479     -205.948471      -69.719063
 H         -74.510216     -206.820908      -69.377792
 H         -78.007912     -209.309387      -69.409439
 H         -78.485901     -207.685333      -69.835510
 H         -76.579552     -207.770447      -68.136436
 H         -75.650658     -208.848511      -69.322128
