20
 generated by VMD
 C          -1.603104       -8.724551        0.287003
 N          -2.417055       -9.193604       -0.323402
 H          -2.512821      -10.261227        2.692564
 H          -1.928810      -11.415325        3.703165
 C          -2.767225      -11.248366        3.048544
 C          -2.923870      -12.359442        1.984459
 C          -4.148164      -11.180880        3.807032
 C          -3.261053      -13.700732        2.543967
 C          -4.646374      -12.497738        4.403598
 C          -4.542711      -13.640847        3.367802
 H          -1.981383      -12.416280        1.391873
 H          -3.661726      -12.008074        1.220470
 H          -3.987483      -10.439829        4.591072
 H          -4.881904      -10.721080        3.090078
 H          -2.427218      -14.060440        3.161783
 H          -3.261086      -14.453717        1.716576
 H          -5.719149      -12.390450        4.712658
 H          -4.039833      -12.741939        5.325460
 H          -4.753819      -14.592760        3.846768
 H          -5.365887      -13.522379        2.621810
