20
 generated by VMD
 C         -50.415279     -129.412933      -43.557091
 N         -50.859146     -129.656586      -44.596054
 H         -49.002514     -128.011108      -40.250488
 H         -50.163944     -129.287704      -42.507042
 C         -48.005955     -128.115387      -40.581829
 C         -47.532398     -129.518051      -40.513950
 C         -46.918140     -127.070686      -40.683636
 C         -46.272423     -129.823135      -41.447941
 C         -45.761295     -127.323463      -41.653519
 C         -45.144207     -128.810181      -41.486164
 H         -48.417114     -130.191193      -40.837696
 H         -47.295460     -129.616364      -39.453171
 H         -47.537132     -126.139046      -40.971909
 H         -46.580978     -126.888428      -39.696056
 H         -46.828747     -129.679520      -42.413261
 H         -45.890522     -130.773529      -41.054729
 H         -44.871407     -126.616173      -41.498775
 H         -46.214828     -127.195747      -42.728092
 H         -44.424820     -128.943024      -42.349411
 H         -44.418816     -128.852707      -40.632992
