20
 generated by VMD
 C         -77.389870     -202.844299      -68.960846
 N         -77.526398     -203.792923      -68.271072
 H         -75.401192     -201.776367      -67.402237
 H         -77.258469     -201.943100      -69.542336
 C         -74.758743     -201.202209      -68.151596
 C         -75.203819     -199.870178      -68.540802
 C         -73.754875     -201.912964      -68.916519
 C         -74.468910     -199.262527      -69.719330
 C         -73.183533     -201.370377      -70.192299
 C         -74.040176     -200.241501      -70.799400
 H         -75.014397     -199.175903      -67.761276
 H         -76.269257     -199.896927      -68.786049
 H         -72.878883     -202.120193      -68.250526
 H         -74.160988     -202.903442      -69.180290
 H         -73.499115     -198.825790      -69.300232
 H         -75.169250     -198.483200      -70.047333
 H         -73.051079     -201.984985      -71.019600
 H         -72.323868     -200.892685      -69.864838
 H         -73.429054     -199.740875      -71.556641
 H         -74.928879     -200.834869      -71.243744
