20
 generated by VMD
 C         -11.669881      -42.279350       -7.132936
 N         -12.186688      -42.235622       -6.127070
 H         -14.705824      -43.031597       -8.259775
 H         -14.946362      -41.951588       -9.634389
 C         -15.249958      -42.943512       -9.209781
 C         -16.724592      -42.938915       -8.996240
 C         -14.968730      -43.955502      -10.267212
 C         -17.517551      -42.509449      -10.247732
 C         -15.538653      -43.544926      -11.613338
 C         -17.061644      -43.394085      -11.433841
 H         -16.959215      -42.247841       -8.186788
 H         -17.037828      -43.895828       -8.670859
 H         -13.879230      -44.165604      -10.478592
 H         -15.264012      -44.983540      -10.008833
 H         -17.348417      -41.439526      -10.350297
 H         -18.612513      -42.535610      -10.126223
 H         -15.372342      -44.370148      -12.333189
 H         -15.039073      -42.662991      -11.966041
 H         -17.446709      -43.023659      -12.423315
 H         -17.500353      -44.407642      -11.257782
