20
 generated by VMD
 C         -78.997551     -209.371964      -77.041710
 N         -79.000618     -209.723053      -75.937851
 H         -77.652733     -210.115524      -73.583138
 H         -79.022430     -208.896240      -78.089111
 C         -78.113235     -210.667831      -72.783401
 C         -77.242462     -211.105881      -71.666321
 C         -79.485657     -211.434860      -73.021851
 C         -77.964752     -211.494675      -70.433311
 C         -80.003769     -212.216446      -71.858543
 C         -78.994766     -212.647705      -70.787582
 H         -76.408012     -210.523392      -71.447121
 H         -76.787567     -211.981796      -72.033615
 H         -80.381454     -210.721100      -73.299194
 H         -79.281128     -212.108795      -73.863571
 H         -78.530052     -210.617203      -70.178528
 H         -77.211815     -211.746475      -69.682205
 H         -80.622368     -213.023544      -72.129028
 H         -80.870270     -211.640884      -71.318474
 H         -79.489365     -213.063217      -69.873116
 H         -78.426361     -213.544907      -71.146233
