20
 generated by VMD
 C         -41.030777     -104.126617      -35.870010
 N         -41.909473     -104.867699      -36.087772
 H         -38.342728     -103.959450      -33.541100
 H         -40.427269     -103.234367      -35.669491
 C         -38.215496     -104.791725      -32.917931
 C         -36.868412     -105.241257      -32.373295
 C         -39.242813     -105.948921      -33.061470
 C         -37.066387     -106.236938      -31.267929
 C         -39.258232     -107.125168      -32.031578
 C         -37.815926     -107.497284      -31.572598
 H         -36.273834     -104.425186      -31.940994
 H         -36.181183     -105.706726      -33.044487
 H         -40.173107     -105.490211      -33.160477
 H         -38.994717     -106.458481      -34.063568
 H         -37.564564     -105.724144      -30.409918
 H         -36.012074     -106.521820      -31.013140
 H         -39.712780     -108.024170      -32.380375
 H         -39.828293     -106.794144      -31.153254
 H         -37.824741     -108.220490      -30.674582
 H         -37.334217     -107.942467      -32.394318
