20
 generated by VMD
 C         -77.334480     -203.278320      -67.736435
 N         -77.897263     -204.251495      -67.474701
 H         -75.209488     -201.248169      -67.726112
 H         -76.831779     -202.335037      -67.995583
 C         -74.745422     -200.712891      -68.510536
 C         -74.954704     -199.262070      -68.680313
 C         -73.831039     -201.425735      -69.348305
 C         -73.888992     -198.552155      -69.537270
 C         -72.924965     -200.651367      -70.274513
 C         -73.661613     -199.357468      -70.818878
 H         -74.902962     -198.702866      -67.733559
 H         -75.998230     -198.974915      -69.122810
 H         -73.104050     -202.042694      -68.745918
 H         -74.354668     -202.052139      -70.029663
 H         -73.015144     -198.537766      -68.952507
 H         -74.240921     -197.564529      -69.689980
 H         -72.361740     -201.125305      -71.122581
 H         -72.097153     -200.364395      -69.535217
 H         -73.016212     -198.798904      -71.510582
 H         -74.587196     -199.694534      -71.441017
