20
 generated by VMD
 C         -71.414688     -198.992050      -64.612625
 N         -70.476112     -198.689392      -65.211288
 H         -72.213585     -196.514069      -66.531738
 H         -72.113129     -199.344162      -63.853680
 C         -72.970413     -195.952408      -67.056816
 C         -73.142174     -194.537460      -66.662758
 C         -73.417763     -196.444229      -68.333771
 C         -73.366173     -193.652939      -67.948082
 C         -74.693954     -195.687531      -68.853889
 C         -74.499222     -194.205063      -68.818443
 H         -72.225273     -194.215927      -66.258057
 H         -74.099251     -194.646561      -66.054237
 H         -72.638359     -196.226196      -69.090683
 H         -73.565018     -197.525375      -68.254951
 H         -72.424889     -193.519104      -68.515594
 H         -73.767647     -192.745865      -67.561966
 H         -75.460075     -195.909500      -68.130775
 H         -75.043610     -195.861130      -69.868584
 H         -74.179161     -193.845764      -69.830009
 H         -75.445663     -193.626404      -68.616737
