20
 generated by VMD
 C         -70.563507     -196.911850      -66.257469
 N         -69.902985     -196.081802      -65.792549
 H         -72.649399     -195.122742      -64.734863
 H         -71.433517     -197.475540      -66.651222
 C         -72.810837     -194.586395      -65.653976
 C         -72.420403     -193.193604      -66.047913
 C         -73.944466     -195.262741      -66.392021
 C         -73.281601     -192.665115      -67.202072
 C         -73.632523     -195.152435      -67.870865
 C         -73.376305     -193.695282      -68.335846
 H         -71.343216     -193.078995      -66.145973
 H         -72.530327     -192.514160      -65.138977
 H         -73.971054     -196.374817      -66.173111
 H         -74.857643     -194.668716      -66.287888
 H         -72.969749     -191.660355      -67.504555
 H         -74.291527     -192.444077      -66.909225
 H         -74.506828     -195.635025      -68.376762
 H         -72.784035     -195.741379      -68.159042
 H         -72.539154     -193.699066      -69.090820
 H         -74.339119     -193.461319      -68.971283
