20
 generated by VMD
 C         -11.943678      -31.577864       -9.027805
 N         -12.626902      -32.229675       -9.663170
 H         -10.757798      -34.086811       -6.664074
 H         -11.712371      -33.990223       -5.187659
 C         -11.402591      -34.708061       -5.971429
 C         -10.630407      -35.775776       -5.249883
 C         -12.627053      -35.228680       -6.678340
 C         -11.512808      -36.617214       -4.333982
 C         -13.587437      -35.996109       -5.692422
 C         -12.819075      -37.090847       -4.907797
 H          -9.757416      -35.486996       -4.648240
 H         -10.260585      -36.479828       -5.984143
 H         -13.185084      -34.570320       -7.340526
 H         -12.168714      -35.968662       -7.376935
 H         -11.671402      -36.039963       -3.444844
 H         -10.952168      -37.479248       -3.938453
 H         -14.427615      -36.466995       -6.273921
 H         -14.074939      -35.287468       -5.045587
 H         -13.480492      -37.496582       -4.100199
 H         -12.566405      -37.910957       -5.611905
