20
 generated by VMD
 C         -50.705513     -129.809296      -45.239941
 N         -51.095760     -129.395081      -44.252506
 H         -49.065350     -129.322052      -42.614750
 H         -50.368496     -130.421371      -46.022411
 C         -48.166122     -129.411636      -41.929485
 C         -47.988991     -130.794510      -41.356495
 C         -47.411591     -128.102219      -41.436649
 C         -46.509113     -131.038177      -41.264519
 C         -46.015003     -128.497650      -41.204269
 C         -45.803658     -129.921310      -40.614189
 H         -48.443890     -131.623062      -42.003078
 H         -48.449230     -130.926025      -40.439907
 H         -47.515251     -127.350624      -42.164963
 H         -47.962833     -127.896606      -40.414368
 H         -46.199242     -131.094971      -42.357441
 H         -46.290955     -131.902588      -40.661419
 H         -45.500290     -127.714439      -40.565491
 H         -45.422310     -128.508118      -42.202122
 H         -44.747898     -130.066086      -40.799900
 H         -45.861759     -129.768860      -39.551525
