20
 generated by VMD
 C         -61.301643     -156.181808      -55.114742
 N         -60.374557     -155.768753      -55.609985
 H         -59.611000     -156.217300      -51.545723
 H         -62.181538     -156.396667      -54.565666
 C         -58.545444     -156.363037      -51.358997
 C         -57.801975     -155.146469      -51.063148
 C         -57.846153     -157.506668      -51.963451
 C         -56.475189     -155.486725      -50.475780
 C         -56.482677     -157.837708      -51.308964
 C         -55.682869     -156.513412      -51.143940
 H         -58.266735     -154.449661      -50.265957
 H         -57.704243     -154.563309      -51.982456
 H         -58.431458     -158.509811      -51.991158
 H         -57.679062     -157.261047      -53.012451
 H         -56.334213     -155.693878      -49.452564
 H         -55.962372     -154.503174      -50.471123
 H         -55.931824     -158.641632      -51.963615
 H         -56.461895     -158.241760      -50.317532
 H         -54.688046     -156.660583      -50.670933
 H         -55.440628     -156.198944      -52.193638
