20
 generated by VMD
 C         -29.742115      -89.412041      -25.166681
 N         -29.129730      -89.622314      -26.119104
 H         -32.000595      -91.324471      -27.249466
 H         -30.256231      -89.370392      -24.196218
 C         -32.902370      -90.765823      -27.551165
 C         -34.270958      -91.061127      -26.962797
 C         -32.721203      -89.540985      -28.456783
 C         -35.139645      -89.824387      -26.673174
 C         -33.476627      -88.370026      -27.793289
 C         -34.938095      -88.738091      -27.646929
 H         -34.080589      -91.738144      -26.136656
 H         -34.706703      -91.566620      -27.890352
 H         -31.743156      -89.115211      -28.726147
 H         -33.265751      -89.742798      -29.379173
 H         -34.703091      -89.369690      -25.692732
 H         -36.105625      -90.197906      -26.361799
 H         -33.469292      -87.362328      -28.268475
 H         -32.906651      -88.312103      -26.812584
 H         -35.394588      -87.873619      -27.173094
 H         -35.346844      -89.031761      -28.634529
