20
 generated by VMD
 C         -13.881426      -42.920479       -6.108902
 N         -12.896871      -43.427120       -6.312132
 H         -14.845864      -45.066372       -8.983343
 H         -14.326479      -43.733871      -10.080642
 C         -15.099593      -44.464298       -9.839849
 C         -16.380196      -43.683979       -9.453535
 C         -15.499425      -45.327019      -11.005054
 C         -16.958792      -42.789650      -10.579815
 C         -15.882471      -44.372925      -12.188887
 C         -17.113358      -43.515522      -11.906280
 H         -16.190744      -43.024063       -8.610172
 H         -17.119568      -44.458523       -9.068286
 H         -14.659501      -45.975842      -11.278266
 H         -16.450895      -45.934013      -10.826169
 H         -16.279861      -41.952843      -10.685608
 H         -17.911631      -42.367676      -10.248391
 H         -16.039700      -45.118809      -12.972877
 H         -15.023076      -43.721390      -12.513766
 H         -17.283710      -42.870003      -12.739368
 H         -17.996241      -44.145443      -11.814812
