20
 generated by VMD
 C         -22.362825      -68.245552      -16.604242
 N         -21.988935      -68.458488      -15.535140
 H         -24.317158      -65.707413      -18.360958
 H         -22.753359      -68.007385      -17.686502
 C         -24.691145      -66.564583      -18.970146
 C         -24.054619      -67.147606      -20.142735
 C         -26.178137      -66.574944      -18.909315
 C         -24.393547      -68.616737      -20.274931
 C         -26.609104      -67.978874      -19.196468
 C         -25.931274      -68.696777      -20.386408
 H         -23.046556      -66.961098      -20.194508
 H         -24.461672      -66.717239      -21.049416
 H         -26.453930      -66.139458      -17.958439
 H         -26.500546      -65.879929      -19.779242
 H         -23.958389      -69.291046      -19.574913
 H         -24.066051      -69.065277      -21.237211
 H         -27.646917      -67.999794      -19.290066
 H         -26.440744      -68.455734      -18.239403
 H         -26.383490      -69.690460      -20.433182
 H         -26.105246      -68.170753      -21.355608
