20
 generated by VMD
 C         -41.615894     -102.312065      -34.258404
 N         -41.013741     -101.832359      -35.089901
 H         -39.492756     -104.370872      -32.472778
 H         -42.016388     -102.945099      -33.430420
 C         -38.532162     -104.242241      -32.136292
 C         -37.357880     -103.749054      -33.028008
 C         -38.204655     -104.981140      -30.931179
 C         -36.164078     -103.344521      -32.188435
 C         -36.835201     -104.799347      -30.262264
 C         -35.657070     -104.476669      -31.203913
 H         -37.600765     -102.936874      -33.722057
 H         -37.294601     -104.679626      -33.532249
 H         -39.007324     -104.647705      -30.294622
 H         -38.383755     -106.041641      -31.179874
 H         -36.305252     -102.460426      -31.452782
 H         -35.321625     -103.065308      -32.868740
 H         -36.556610     -105.568535      -29.650282
 H         -36.932617     -103.888718      -29.615379
 H         -34.754196     -104.125427      -30.718809
 H         -35.351757     -105.409142      -31.816446
