20
 generated by VMD
 C         -12.629203      -27.551723       -4.580919
 N         -13.679513      -27.960426       -4.565840
 H         -10.673156      -29.853569       -2.674443
 H         -10.655667      -28.284317       -3.311206
 C         -10.000118      -29.132835       -3.157021
 C          -9.502007      -29.913336       -4.378230
 C          -8.783649      -28.605446       -2.303868
 C          -8.466560      -29.120472       -5.255332
 C          -7.866038      -27.686964       -3.216600
 C          -7.327644      -28.483410       -4.459164
 H         -10.428418      -30.121012       -4.957271
 H          -9.046572      -30.840248       -4.145875
 H          -9.166291      -28.120613       -1.369768
 H          -8.166944      -29.429342       -1.901921
 H          -9.016018      -28.390804       -5.852873
 H          -7.962468      -29.849297       -5.925470
 H          -7.035498      -27.344860       -2.573938
 H          -8.401509      -26.816755       -3.545390
 H          -6.824054      -27.714888       -5.084960
 H          -6.586481      -29.235695       -4.128173
