20
 generated by VMD
 C         -27.564369      -81.149841      -27.364971
 N         -28.610588      -81.586075      -27.620823
 H         -30.308350      -83.374474      -25.635859
 H         -26.511295      -80.693832      -27.363821
 C         -30.784803      -84.081947      -24.964680
 C         -30.519123      -84.091324      -23.524485
 C         -31.339806      -85.294731      -25.496073
 C         -31.686413      -84.651688      -22.568605
 C         -32.679073      -85.711136      -24.837864
 C         -32.365608      -85.859421      -23.307753
 H         -30.276033      -83.096100      -23.112049
 H         -29.645157      -84.649109      -23.249025
 H         -31.309376      -84.986717      -26.575224
 H         -30.645491      -86.145958      -25.553923
 H         -32.473732      -83.796448      -22.588961
 H         -31.322592      -84.909576      -21.583111
 H         -33.088200      -86.552261      -25.352123
 H         -33.423683      -84.834473      -24.832863
 H         -33.360046      -86.080238      -22.830269
 H         -31.814934      -86.733841      -23.221741
