20
 generated by VMD
 C         -70.341049     -183.404587      -66.211807
 N         -69.236084     -183.073090      -65.993813
 H         -68.660446     -184.811234      -63.228943
 H         -71.357071     -183.732346      -66.482201
 C         -68.336838     -184.344162      -62.334213
 C         -68.374252     -184.720367      -60.846645
 C         -67.841675     -182.961761      -62.691330
 C         -67.361107     -184.070526      -59.925182
 C         -67.074661     -182.185486      -61.630081
 C         -67.577484     -182.464966      -60.218498
 H         -68.221672     -185.779221      -60.641750
 H         -69.440514     -184.538071      -60.561047
 H         -67.074310     -182.993393      -63.514492
 H         -68.801010     -182.455063      -63.041176
 H         -66.298126     -184.280823      -60.201351
 H         -67.479874     -184.172928      -58.837833
 H         -67.041664     -181.136948      -61.787819
 H         -66.136307     -182.694519      -61.790726
 H         -66.815735     -181.819901      -59.590736
 H         -68.585960     -182.125916      -59.810581
