20
 generated by VMD
 C         -30.151777      -75.970001      -23.116838
 N         -30.871887      -75.556824      -23.910477
 H         -28.936255      -79.038307      -21.394863
 H         -29.261955      -76.566666      -22.588692
 C         -28.316841      -78.139091      -21.614113
 C         -27.619154      -78.086594      -22.959663
 C         -27.679045      -77.552391      -20.383247
 C         -26.707527      -76.895210      -23.155844
 C         -26.834154      -76.264206      -20.743505
 C         -25.955582      -76.359505      -21.925411
 H         -28.246283      -78.380226      -23.776972
 H         -26.963825      -78.855438      -22.958027
 H         -28.469599      -77.340820      -19.594767
 H         -27.058599      -78.316505      -19.963411
 H         -27.413843      -76.124664      -23.447989
 H         -26.002340      -76.925514      -23.976881
 H         -26.252375      -75.993927      -19.873438
 H         -27.729952      -75.519745      -20.741400
 H         -25.316898      -75.492569      -22.083858
 H         -25.151707      -77.153336      -21.724966
