20
 generated by VMD
 C         -67.992622     -179.467392      -58.740227
 N         -68.051216     -179.969177      -57.700665
 H         -66.526070     -176.517593      -59.426727
 H         -68.023186     -178.911774      -59.683571
 C         -65.788483     -175.902008      -59.773388
 C         -65.983910     -174.913162      -60.904079
 C         -64.379333     -176.315170      -59.594547
 C         -65.096214     -173.696411      -60.795341
 C         -63.486259     -175.103867      -59.429089
 C         -63.640629     -174.151947      -60.656769
 H         -66.956146     -174.777039      -60.735611
 H         -65.803871     -175.295502      -61.899784
 H         -64.151924     -176.937302      -58.745979
 H         -63.908936     -176.801163      -60.525478
 H         -65.380699     -173.213440      -59.894264
 H         -65.312241     -173.074051      -61.624367
 H         -62.425247     -175.487427      -59.390289
 H         -63.731876     -174.645004      -58.495338
 H         -62.844448     -173.451584      -60.482132
 H         -63.182186     -174.565369      -61.614079
