20
 generated by VMD
 C         -49.818096     -141.728806      -45.255039
 N         -49.366005     -142.799500      -45.250698
 H         -51.758919     -139.038925      -45.859310
 H         -50.309715     -140.747162      -45.233047
 C         -52.272507     -139.874344      -46.400585
 C         -52.441315     -140.104813      -47.856201
 C         -53.302921     -140.430313      -45.533997
 C         -53.028381     -141.424805      -48.352875
 C         -53.858856     -141.797516      -45.991302
 C         -54.209522     -141.788788      -47.515774
 H         -51.398567     -139.967255      -48.163589
 H         -53.149349     -139.394348      -48.282455
 H         -52.930264     -140.391998      -44.484283
 H         -54.007267     -139.542358      -45.562412
 H         -52.352249     -142.235870      -48.204330
 H         -53.377140     -141.195053      -49.315670
 H         -54.781548     -142.185547      -45.391338
 H         -53.005043     -142.500946      -45.764881
 H         -54.585541     -142.730515      -47.838448
 H         -54.918434     -140.972748      -47.553719
