20
 generated by VMD
 C         -38.339657     -109.673729      -36.484772
 N         -37.624100     -109.021690      -35.828239
 H         -41.484673     -111.029747      -37.300980
 H         -38.893120     -110.338539      -37.130318
 C         -41.617519     -111.567665      -36.334164
 C         -42.060616     -113.013245      -36.290047
 C         -41.943932     -110.764801      -35.107697
 C         -42.062630     -113.657425      -34.852032
 C         -42.023628     -111.505524      -33.706165
 C         -42.734634     -112.742249      -33.934326
 H         -41.438431     -113.589302      -36.948574
 H         -43.021492     -113.111694      -36.751274
 H         -41.297352     -109.947517      -34.803196
 H         -42.979134     -110.449753      -35.227730
 H         -41.070545     -113.845329      -34.552128
 H         -42.717670     -114.642838      -34.849205
 H         -42.410084     -110.802917      -32.990425
 H         -41.037041     -111.746597      -33.420994
 H         -42.882809     -113.205055      -33.022728
 H         -43.743145     -112.708603      -34.330227
