20
 generated by VMD
 C         -21.716473      -55.789959      -17.677607
 N         -20.684584      -55.412971      -18.014359
 H         -23.116299      -58.379837      -15.074013
 H         -22.640099      -55.821308      -17.070219
 C         -22.223984      -58.965027      -14.902839
 C         -21.506063      -58.900574      -13.586473
 C         -21.634607      -59.703381      -16.032990
 C         -21.021107      -60.265057      -13.151925
 C         -20.325108      -60.330528      -15.680688
 C         -20.219402      -60.901855      -14.295894
 H         -22.273838      -58.555641      -12.934858
 H         -20.634495      -58.275558      -13.606229
 H         -22.291191      -60.550720      -16.321987
 H         -21.581474      -59.140785      -16.990374
 H         -21.912296      -60.898170      -12.829495
 H         -20.346350      -60.109718      -12.268429
 H         -19.605486      -59.521549      -15.670248
 H         -19.947531      -60.972530      -16.481310
 H         -20.692686      -61.874397      -14.418405
 H         -19.174686      -61.106003      -14.015425
