20
 generated by VMD
 C         -60.731098     -153.326584      -52.174706
 N         -61.252972     -153.986893      -51.440968
 H         -57.682747     -153.705185      -51.612869
 H         -60.181065     -152.737640      -52.877758
 C         -56.749138     -153.381088      -51.183758
 C         -56.242649     -153.821976      -49.851337
 C         -56.234100     -152.119995      -51.788120
 C         -54.648232     -153.715515      -49.666710
 C         -54.668873     -152.167130      -51.744091
 C         -54.184593     -152.363831      -50.288311
 H         -56.397789     -154.829544      -49.409855
 H         -56.769283     -153.213455      -49.088604
 H         -56.551300     -152.160873      -52.840626
 H         -56.659283     -151.231110      -51.240047
 H         -54.078423     -154.480804      -50.239517
 H         -54.435123     -153.571533      -48.644066
 H         -54.250629     -151.150772      -52.229412
 H         -54.290154     -152.983093      -52.393730
 H         -53.136765     -152.266632      -50.147560
 H         -54.810390     -151.691727      -49.590981
