20
 generated by VMD
 C         -23.171150      -55.076378      -16.823492
 N         -23.621141      -55.002132      -15.807796
 H         -19.424658      -55.388237      -15.596854
 H         -22.660070      -55.462482      -17.582016
 C         -19.212337      -56.080410      -14.795076
 C         -19.573811      -55.950882      -13.387907
 C         -18.419724      -57.284733      -15.237024
 C         -20.330339      -57.179527      -12.896146
 C         -18.908947      -58.531956      -14.577147
 C         -19.903105      -58.508461      -13.460313
 H         -20.040354      -55.003849      -13.101008
 H         -18.629160      -55.878426      -12.892142
 H         -18.514610      -57.332573      -16.394732
 H         -17.367451      -57.304260      -15.101651
 H         -21.354387      -57.032467      -13.274335
 H         -20.411083      -57.201332      -11.820759
 H         -18.062208      -59.220291      -14.308916
 H         -19.461433      -59.028175      -15.413842
 H         -20.790197      -59.117752      -13.781176
 H         -19.494305      -59.115498      -12.659169
