20
 generated by VMD
 C         -79.732780     -206.870758      -75.476624
 N         -79.975861     -207.440750      -74.465889
 H         -76.915123     -208.043030      -73.253441
 H         -79.347748     -206.559937      -76.402451
 C         -76.875031     -208.312775      -72.265343
 C         -75.638832     -207.887253      -71.423866
 C         -77.840698     -209.228714      -71.650017
 C         -76.000587     -207.747803      -69.878860
 C         -78.177582     -209.047470      -70.226463
 C         -76.934303     -208.789062      -69.366974
 H         -75.122337     -207.113525      -71.971642
 H         -74.865608     -208.695999      -71.456863
 H         -78.723053     -209.338104      -72.230995
 H         -77.413864     -210.237152      -71.555077
 H         -76.243744     -206.716827      -69.628845
 H         -75.064636     -207.785248      -69.339188
 H         -78.655907     -209.849472      -69.722603
 H         -78.888344     -208.182220      -70.211838
 H         -77.177483     -208.679092      -68.282440
 H         -76.299515     -209.746399      -69.356293
