20
 generated by VMD
 C         -57.866417     -165.391052      -56.431622
 N         -57.658157     -166.550201      -56.390167
 H         -60.797359     -164.990982      -54.057411
 H         -57.994923     -164.298141      -56.509552
 C         -61.495686     -165.167679      -54.860847
 C         -61.805321     -166.595078      -55.114525
 C         -62.181656     -164.098236      -55.517509
 C         -63.280289     -166.821701      -55.344311
 C         -63.678806     -164.280869      -55.774509
 C         -63.901836     -165.738922      -56.279331
 H         -61.441814     -167.304428      -54.456226
 H         -61.381802     -166.893097      -56.117737
 H         -61.990955     -163.149506      -54.947102
 H         -61.871143     -164.012482      -56.485603
 H         -63.782028     -166.917847      -54.436554
 H         -63.294968     -167.796814      -55.767170
 H         -63.873680     -163.393311      -56.607723
 H         -64.411591     -163.919205      -54.895618
 H         -64.960747     -165.896118      -56.359146
 H         -63.369453     -165.657883      -57.236740
