20
 generated by VMD
 C          -3.404658      -19.590807        3.185463
 N          -3.629542      -18.500559        3.127997
 H          -5.412164      -20.539015       -0.108978
 H          -6.574100      -21.243633       -1.255140
 C          -6.235296      -20.290083       -0.828925
 C          -5.580011      -19.457281       -1.914553
 C          -7.503950      -19.680626       -0.211583
 C          -6.617654      -19.132402       -2.964458
 C          -8.593695      -19.551907       -1.336628
 C          -8.007187      -18.738995       -2.498433
 H          -4.696245      -19.875145       -2.376345
 H          -5.193326      -18.487379       -1.424140
 H          -7.770429      -20.227167        0.712559
 H          -7.339451      -18.714615        0.257933
 H          -6.720455      -20.030396       -3.559969
 H          -6.194527      -18.386061       -3.683584
 H          -9.495154      -19.120438       -0.897456
 H          -8.864952      -20.567636       -1.678649
 H          -8.696453      -18.728653       -3.376843
 H          -7.964517      -17.647665       -2.251409
