20
 generated by VMD
 C         -27.853451      -87.333481      -27.112465
 N         -27.848928      -86.882492      -26.059036
 H         -31.212574      -88.638016      -25.411097
 H         -27.940042      -87.800430      -28.074118
 C         -32.216934      -88.645729      -25.775629
 C         -33.536274      -88.757057      -24.945932
 C         -32.417999      -88.499817      -27.290262
 C         -34.572479      -87.635300      -25.349020
 C         -33.610439      -87.710060      -27.674875
 C         -34.883907      -87.740906      -26.803938
 H         -33.205082      -88.583015      -23.918423
 H         -33.972588      -89.800407      -25.226686
 H         -31.477608      -88.100632      -27.585079
 H         -32.493179      -89.504410      -27.734344
 H         -34.108608      -86.628777      -25.048901
 H         -35.361088      -87.737167      -24.591772
 H         -33.925789      -87.799149      -28.752724
 H         -33.472679      -86.657921      -27.646091
 H         -35.557480      -86.919586      -27.037304
 H         -35.338470      -88.684196      -26.972019
