20
 generated by VMD
 C         -39.605709     -100.520340      -30.901857
 N         -40.467110     -100.060326      -31.555490
 H         -36.667305     -103.086288      -31.237061
 H         -38.744793     -100.691589      -30.345570
 C         -36.618744     -102.022621      -31.008398
 C         -36.699612     -101.289467      -32.210327
 C         -35.568634     -101.609566      -29.975464
 C         -36.467388      -99.693901      -32.244587
 C         -35.209930     -100.205154      -30.070269
 C         -35.244022      -99.348969      -31.434790
 H         -37.732273     -101.344727      -32.597317
 H         -36.023674     -101.763092      -32.920033
 H         -35.911175     -101.910904      -28.983036
 H         -34.716530     -102.289474      -30.094963
 H         -37.362404      -99.167900      -31.851179
 H         -36.217499      -99.370270      -33.204784
 H         -34.283936     -100.091515      -29.511620
 H         -36.001614      -99.777573      -29.344723
 H         -35.234974      -98.251793      -31.302492
 H         -34.295071      -99.480438      -31.923826
