20
 generated by VMD
 C         -11.457588      -27.326809       -1.378233
 N         -12.189088      -26.513350       -1.531798
 H         -10.488853      -26.074831       -4.092136
 H          -9.196692      -25.716751       -5.296822
 C          -9.374710      -26.063005       -4.243534
 C          -8.889032      -27.500481       -4.155664
 C          -8.675818      -25.092087       -3.233237
 C          -7.400807      -27.582659       -4.208154
 C          -7.126437      -25.245564       -3.375982
 C          -6.778658      -26.714825       -3.123197
 H          -9.301272      -28.172085       -4.918445
 H          -9.276540      -28.016651       -3.288709
 H          -9.029717      -24.027979       -3.382865
 H          -8.952568      -25.311478       -2.222123
 H          -7.018162      -27.322126       -5.273468
 H          -7.029247      -28.645958       -4.113609
 H          -6.650043      -24.549128       -2.659980
 H          -6.849777      -24.814955       -4.352205
 H          -5.692915      -26.849260       -3.116879
 H          -7.070395      -27.018011       -2.110596
