20
 generated by VMD
 C         -47.219612     -137.465302      -46.154224
 N         -47.180969     -136.796204      -47.147327
 H         -50.374836     -136.513412      -44.592716
 H         -47.500565     -138.220535      -45.434353
 C         -51.226292     -137.126022      -44.694366
 C         -51.454933     -137.972794      -45.961369
 C         -52.428017     -137.040878      -43.929932
 C         -52.146259     -139.252533      -45.720726
 C         -53.125889     -138.309677      -43.630363
 C         -53.398243     -139.124344      -44.984432
 H         -50.420631     -138.142303      -46.449829
 H         -51.980228     -137.421631      -46.706478
 H         -52.174793     -136.497726      -43.031403
 H         -52.996861     -136.263092      -44.446976
 H         -51.350487     -139.941605      -45.268696
 H         -52.434727     -139.859283      -46.594181
 H         -53.984657     -138.214005      -42.914627
 H         -52.490479     -138.974716      -42.969982
 H         -53.961205     -140.141861      -44.765549
 H         -54.156494     -138.594223      -45.584160
