20
 generated by VMD
 C         -57.153435     -163.181183      -56.523907
 N         -57.181522     -162.354218      -57.303158
 H         -59.539349     -165.140701      -54.843872
 H         -57.204521     -163.982269      -55.803471
 C         -60.635681     -164.816818      -54.721901
 C         -61.310574     -164.796173      -53.392426
 C         -61.517517     -164.425949      -55.931984
 C         -62.498127     -163.853119      -53.131687
 C         -62.986095     -163.800797      -55.656982
 C         -63.577477     -164.067215      -54.236465
 H         -60.545303     -164.764679      -52.518280
 H         -61.708366     -165.796402      -53.152054
 H         -61.033875     -163.724838      -56.517689
 H         -61.572910     -165.274811      -56.611107
 H         -62.127457     -162.777740      -53.167175
 H         -62.927166     -164.129761      -52.142967
 H         -63.588570     -164.309433      -56.427349
 H         -62.811466     -162.741470      -55.844753
 H         -64.472260     -163.423996      -54.116558
 H         -64.066139     -165.148788      -54.163158
