20
 generated by VMD
 C         -57.723011     -168.252426      -55.095806
 N         -56.662106     -168.527664      -54.874741
 H         -61.556911     -167.173843      -55.417236
 H         -58.705303     -168.042664      -55.442959
 C         -62.472572     -166.922333      -55.888271
 C         -62.679939     -167.444366      -57.355412
 C         -63.093117     -165.585999      -55.578789
 C         -64.116470     -167.459198      -57.667103
 C         -64.539726     -165.579468      -55.970798
 C         -64.729836     -166.112091      -57.371944
 H         -62.216778     -168.338943      -57.391132
 H         -62.004864     -166.748962      -58.025230
 H         -63.088165     -165.436722      -54.578671
 H         -62.526131     -164.838760      -56.166721
 H         -64.510941     -168.257202      -57.069130
 H         -64.254951     -167.715958      -58.677071
 H         -65.029640     -164.530945      -55.910339
 H         -65.239693     -166.309021      -55.450485
 H         -65.870407     -166.298386      -57.492741
 H         -64.427246     -165.384705      -58.189781
