20
 generated by VMD
 C         -13.207710      -29.776749       -7.406451
 N         -13.610666      -29.232229       -8.297931
 H         -11.622478      -30.488247       -4.928926
 H         -10.301322      -30.171259       -3.817659
 C         -10.783552      -30.908371       -4.437831
 C          -9.738892      -31.456509       -5.430912
 C         -11.389266      -31.997103       -3.542227
 C          -8.717466      -32.434853       -4.874760
 C         -10.398973      -33.106941       -3.081041
 C          -9.455544      -33.623531       -4.214568
 H          -9.133888      -30.648058       -5.974735
 H         -10.323001      -31.939999       -6.177086
 H         -11.807311      -31.585371       -2.627276
 H         -12.190077      -32.467411       -4.092797
 H          -8.079168      -31.945318       -4.165020
 H          -8.159076      -32.798569       -5.736173
 H         -10.992340      -33.876549       -2.631289
 H          -9.815083      -32.603859       -2.229650
 H          -8.669349      -34.192818       -3.802784
 H         -10.055840      -34.095219       -5.005467
