20
 generated by VMD
 C         -66.382286     -177.930023      -56.907509
 N         -67.546120     -177.822067      -56.998707
 H         -64.467941     -176.062378      -59.328114
 H         -65.271721     -178.051300      -56.864628
 C         -64.346184     -175.003357      -59.509235
 C         -65.531937     -174.120697      -59.203762
 C         -63.220245     -174.560913      -60.405079
 C         -65.271744     -172.686447      -59.235855
 C         -62.983036     -172.957840      -60.381855
 C         -64.348190     -172.151245      -60.286552
 H         -65.826675     -174.323227      -58.168575
 H         -66.445068     -174.352966      -59.800060
 H         -62.202354     -175.067230      -60.280838
 H         -63.582207     -174.745163      -61.440895
 H         -65.049294     -172.390411      -58.233269
 H         -66.199402     -172.145782      -59.363800
 H         -62.445393     -172.507980      -61.264503
 H         -62.334526     -172.907150      -59.555492
 H         -64.181450     -171.115524      -60.386387
 H         -64.719971     -172.461807      -61.286938
