20
 generated by VMD
 C         -58.185463     -166.701706      -56.062168
 N         -58.038387     -167.414886      -55.204937
 H         -60.668518     -165.890305      -54.993607
 H         -58.252796     -166.133453      -56.963463
 C         -61.482616     -165.678024      -55.653507
 C         -61.921154     -166.831238      -56.510677
 C         -62.529118     -164.630249      -55.595325
 C         -63.361248     -167.268387      -56.451260
 C         -63.969353     -165.055008      -55.504890
 C         -64.272255     -166.056198      -56.601002
 H         -61.266628     -167.608643      -56.235229
 H         -61.595207     -166.402100      -57.574245
 H         -62.347660     -163.975098      -54.672306
 H         -62.371693     -163.917572      -56.440582
 H         -63.573761     -167.802200      -55.482635
 H         -63.566128     -168.077240      -57.256859
 H         -64.668816     -164.278030      -55.625607
 H         -64.228302     -165.515625      -54.457993
 H         -65.294868     -166.332184      -56.589069
 H         -63.977318     -165.700150      -57.546604
