20
 generated by VMD
 C         -30.978662      -77.744202      -25.515915
 N         -31.635489      -77.867554      -26.412609
 H         -29.362795      -78.383606      -22.911545
 H         -30.359739      -77.712082      -24.608572
 C         -28.996847      -79.316246      -23.303310
 C         -27.474970      -79.498756      -23.407583
 C         -29.717274      -80.497452      -22.805904
 C         -26.895588      -79.941994      -22.021353
 C         -29.193308      -80.892181      -21.427187
 C         -27.609377      -81.222992      -21.508814
 H         -26.828547      -78.719574      -23.821402
 H         -27.294182      -80.167732      -24.284550
 H         -30.781574      -80.338097      -22.672817
 H         -29.632038      -81.376564      -23.550200
 H         -27.021015      -79.224251      -21.244392
 H         -25.817060      -80.175499      -22.230984
 H         -29.620098      -81.829048      -20.945026
 H         -29.272158      -80.064392      -20.713406
 H         -27.213209      -81.446693      -20.536615
 H         -27.454193      -82.004829      -22.195620
