20
 generated by VMD
 C         -22.471064      -55.009556      -15.542071
 N         -23.340340      -55.294075      -16.245115
 H         -19.370758      -54.453178      -15.314607
 H         -21.749224      -55.133286      -14.842341
 C         -19.257849      -55.427956      -14.753345
 C         -19.160763      -55.381142      -13.340422
 C         -19.283148      -56.740112      -15.542823
 C         -19.728943      -56.563595      -12.590603
 C         -19.551033      -57.987122      -14.558171
 C         -19.008486      -57.765236      -13.133359
 H         -19.750628      -54.524155      -12.948410
 H         -18.112631      -55.224510      -13.104101
 H         -20.178864      -56.536987      -16.211637
 H         -18.363630      -57.030422      -15.998601
 H         -20.832727      -56.700272      -12.704137
 H         -19.487793      -56.386837      -11.566848
 H         -19.037889      -58.882217      -14.999988
 H         -20.583347      -58.305962      -14.545875
 H         -19.071718      -58.703167      -12.566454
 H         -17.990707      -57.565063      -13.323783
