20
 generated by VMD
 C         -45.478088     -123.366493      -35.424686
 N         -45.998341     -124.409668      -35.329437
 H         -45.198036     -122.554810      -38.666618
 H         -44.838169     -122.496094      -35.504406
 C         -44.798275     -121.717796      -39.179859
 C         -43.414204     -121.303421      -39.602066
 C         -45.800442     -120.633209      -39.459778
 C         -43.433956     -121.020721      -41.122208
 C         -45.804417     -120.386917      -40.979862
 C         -44.434986     -119.950684      -41.432598
 H         -42.737587     -122.081421      -39.232952
 H         -43.007740     -120.448685      -39.004200
 H         -46.841412     -120.715454      -39.162228
 H         -45.461182     -119.847725      -38.908283
 H         -43.393925     -121.868706      -41.880066
 H         -42.504318     -120.532097      -41.351254
 H         -46.674183     -119.593407      -41.205734
 H         -46.086353     -121.327362      -41.557156
 H         -44.454308     -119.953415      -42.479023
 H         -44.090179     -119.021805      -40.974339
