20
 generated by VMD
 C         -71.702644     -199.090881      -64.733635
 N         -70.639709     -198.821487      -65.147766
 H         -72.299850     -196.502411      -66.382614
 H         -72.600464     -199.324097      -64.183456
 C         -72.842567     -195.923462      -67.132423
 C         -73.095169     -194.538010      -66.784317
 C         -73.209549     -196.479034      -68.458176
 C         -73.477493     -193.742142      -68.001785
 C         -74.548805     -195.810822      -68.897369
 C         -74.701942     -194.354507      -68.619522
 H         -72.185417     -194.161926      -66.219681
 H         -73.901642     -194.424789      -66.123413
 H         -72.340141     -196.468262      -69.147827
 H         -73.312378     -197.592712      -68.428848
 H         -72.657089     -193.787964      -68.719398
 H         -73.674347     -192.680359      -67.638260
 H         -75.413292     -196.340973      -68.399788
 H         -74.655174     -196.137711      -69.935989
 H         -74.817879     -193.884277      -69.614464
 H         -75.513168     -194.128159      -67.939194
