20
 generated by VMD
 C         -59.929207     -169.675568      -55.513977
 N         -59.638222     -168.612778      -55.059868
 H         -62.902012     -170.391678      -56.407986
 H         -60.342278     -170.638733      -55.828789
 C         -63.248962     -169.447372      -56.784416
 C         -62.812450     -168.955063      -58.123016
 C         -63.550377     -168.446671      -55.819267
 C         -63.392792     -167.669128      -58.706596
 C         -64.184700     -167.049301      -56.280815
 C         -63.501961     -166.582916      -57.586048
 H         -62.817036     -169.756378      -58.992298
 H         -61.779915     -168.874634      -57.943733
 H         -64.242989     -168.861069      -54.996048
 H         -62.612755     -168.121780      -55.269630
 H         -64.360344     -167.987228      -59.083515
 H         -62.705807     -167.317322      -59.505936
 H         -64.157524     -166.376831      -55.445671
 H         -65.266075     -167.160324      -56.473526
 H         -63.980843     -165.762604      -58.181843
 H         -62.421368     -166.308884      -57.352257
