20
 generated by VMD
 C         -28.306267      -84.136032      -27.136021
 N         -27.584618      -83.438728      -26.594376
 H         -31.863472      -84.291794      -26.230740
 H         -29.086878      -84.756615      -27.591026
 C         -31.641790      -85.272614      -25.740808
 C         -31.445492      -85.430580      -24.330893
 C         -31.916712      -86.513412      -26.503532
 C         -32.764431      -85.955643      -23.676775
 C         -33.217789      -87.144737      -25.983458
 C         -33.313156      -87.197334      -24.439754
 H         -31.194649      -84.469872      -23.928524
 H         -30.574915      -86.122467      -24.054203
 H         -32.146942      -86.140366      -27.580643
 H         -31.012909      -87.111481      -26.547701
 H         -33.438824      -85.122627      -23.618706
 H         -32.754128      -86.257988      -22.572823
 H         -33.469482      -88.140381      -26.335739
 H         -33.998455      -86.527267      -26.287107
 H         -34.197601      -87.458939      -24.009607
 H         -32.628502      -88.034790      -24.320032
