20
 generated by VMD
 C         -60.724979     -153.284912      -52.271503
 N         -61.219044     -153.885391      -51.338085
 H         -57.414612     -154.059341      -51.563808
 H         -60.320690     -152.803299      -53.158360
 C         -56.725357     -153.394287      -51.057213
 C         -56.158398     -153.727905      -49.738972
 C         -56.261063     -152.190872      -51.804226
 C         -54.600033     -153.662704      -49.814713
 C         -54.745045     -152.067368      -51.634296
 C         -54.170975     -152.238052      -50.286224
 H         -56.299438     -154.716660      -49.242554
 H         -56.552666     -153.019226      -48.992649
 H         -56.576618     -152.175262      -52.836193
 H         -56.721901     -151.304047      -51.265289
 H         -54.168156     -154.334885      -50.555691
 H         -54.190357     -153.798431      -48.873703
 H         -54.512470     -150.948792      -52.093315
 H         -54.240425     -152.791321      -52.260166
 H         -53.072521     -152.299545      -50.443893
 H         -54.420124     -151.579971      -49.439774
