20
 generated by VMD
 C         -71.888885     -199.185394      -64.790810
 N         -70.790413     -198.925842      -65.100029
 H         -72.016495     -196.532455      -66.514091
 H         -72.950844     -199.173187      -64.718307
 C         -72.742561     -195.992874      -67.118973
 C         -72.933044     -194.505325      -66.768768
 C         -73.128014     -196.468857      -68.490318
 C         -73.605934     -193.720627      -68.055092
 C         -74.502701     -195.952438      -68.980255
 C         -74.808105     -194.564911      -68.577972
 H         -71.970673     -194.126465      -66.573776
 H         -73.768044     -194.442642      -65.994308
 H         -72.313072     -195.976990      -69.094284
 H         -73.083702     -197.565277      -68.659081
 H         -72.906151     -193.661880      -68.874962
 H         -73.862175     -192.750824      -67.720222
 H         -75.262436     -196.543060      -68.515961
 H         -74.590935     -196.026703      -70.106850
 H         -75.161652     -193.995773      -69.517761
 H         -75.531021     -194.449356      -67.768600
