20
 generated by VMD
 C         -12.237101      -31.463720       -8.707100
 N         -12.337687      -30.643421       -7.978971
 H         -11.014359      -35.020309       -7.781511
 H         -12.287765      -34.028248       -6.991138
 C         -11.483788      -34.785957       -6.849383
 C         -10.429753      -34.489109       -5.739276
 C         -12.241563      -36.025597       -6.408263
 C         -11.142474      -34.352261       -4.345329
 C         -13.003183      -35.904175       -5.143812
 C         -12.015951      -35.550209       -4.043095
 H         -10.004785      -33.493053       -5.973613
 H          -9.690095      -35.304867       -5.785773
 H         -12.986034      -36.281219       -7.188338
 H         -11.510935      -36.839485       -6.398853
 H         -11.836778      -33.489353       -4.349085
 H         -10.370303      -34.300629       -3.560364
 H         -13.454500      -36.855190       -4.838505
 H         -13.789982      -35.095882       -5.154758
 H         -12.541796      -35.410854       -3.065884
 H         -11.455481      -36.421577       -3.856504
