20
 generated by VMD
 C         -31.098322      -77.482437      -25.157240
 N         -32.031769      -77.067619      -25.631927
 H         -29.156612      -76.894379      -22.443188
 H         -30.133539      -77.791222      -25.005476
 C         -28.634167      -77.814774      -22.366903
 C         -27.449020      -77.996040      -23.246843
 C         -28.992367      -78.800591      -21.231405
 C         -26.258680      -78.700638      -22.537752
 C         -27.809929      -79.779289      -20.742762
 C         -26.761129      -79.976395      -21.832867
 H         -27.075350      -76.971298      -23.445444
 H         -27.846258      -78.675858      -23.997982
 H         -29.329050      -78.303764      -20.335281
 H         -29.712893      -79.485619      -21.747944
 H         -25.746861      -77.936234      -21.939550
 H         -25.395161      -79.042183      -23.170948
 H         -28.022093      -80.660141      -20.274902
 H         -27.343710      -79.278145      -19.908819
 H         -25.900597      -80.442032      -21.378504
 H         -26.986917      -80.757637      -22.683958
