20
 generated by VMD
 C         -78.992088     -204.251770      -70.500282
 N         -80.000778     -204.879272      -70.609932
 H         -76.687798     -203.429916      -68.704887
 H         -77.983246     -203.746552      -70.351974
 C         -75.827698     -203.171783      -69.224236
 C         -75.797348     -202.044693      -70.219551
 C         -74.605644     -203.956039      -68.876022
 C         -74.407234     -201.487656      -70.567780
 C         -73.254280     -203.271545      -69.025314
 C         -73.274330     -202.392990      -70.334320
 H         -76.349991     -201.218018      -69.652603
 H         -76.404419     -202.348694      -71.044655
 H         -74.731682     -204.611237      -67.955772
 H         -74.663406     -204.821030      -69.604942
 H         -74.323479     -200.522903      -69.976982
 H         -74.383392     -201.178375      -71.639557
 H         -72.411354     -203.913895      -68.903450
 H         -73.138283     -202.635712      -68.146721
 H         -72.313339     -201.891525      -70.571220
 H         -73.171265     -203.093552      -71.105797
