20
 generated by VMD
 C         -28.182310      -83.620110      -27.315208
 N         -27.374107      -83.435905      -26.516161
 H         -31.262236      -84.369255      -26.267956
 H         -28.853243      -83.886032      -28.165928
 C         -31.597454      -85.226349      -25.791819
 C         -31.531090      -85.212868      -24.269310
 C         -32.134678      -86.393700      -26.498964
 C         -32.711552      -85.858665      -23.612589
 C         -33.288803      -87.079987      -25.733675
 C         -33.002079      -87.232895      -24.265121
 H         -31.360744      -84.119949      -24.048992
 H         -30.729366      -85.870384      -23.995926
 H         -32.323818      -86.277481      -27.529133
 H         -31.291573      -87.126244      -26.406456
 H         -33.697933      -85.354500      -23.749727
 H         -32.599560      -85.858307      -22.563053
 H         -33.386341      -87.989136      -26.324688
 H         -34.240749      -86.435379      -25.925850
 H         -34.001869      -87.617691      -23.796026
 H         -32.192642      -87.955605      -24.031261
