20
 generated by VMD
 C         -30.558846      -93.720207      -25.285143
 N         -29.381817      -93.761086      -25.191780
 H         -33.821720      -91.885170      -26.567253
 H         -31.699347      -93.818230      -25.354733
 C         -34.289303      -91.743896      -27.587000
 C         -35.660881      -92.234886      -27.831522
 C         -33.363087      -91.233597      -28.654919
 C         -36.360340      -91.477821      -28.878666
 C         -34.189075      -90.372581      -29.608294
 C         -35.444340      -91.098381      -30.034119
 H         -36.170792      -92.321945      -26.793180
 H         -35.559978      -93.325256      -28.228790
 H         -32.394073      -90.835411      -28.310127
 H         -32.979305      -92.179878      -29.189842
 H         -36.566448      -90.491402      -28.425659
 H         -37.356659      -91.872337      -29.184652
 H         -33.442669      -90.056175      -30.347210
 H         -34.441074      -89.459366      -29.131227
 H         -35.868660      -90.397453      -30.812393
 H         -35.165028      -92.066933      -30.599224
