20
 generated by VMD
 C         -58.207417     -166.817657      -56.050446
 N         -57.926586     -167.501801      -55.109001
 H         -60.872978     -165.923370      -54.944962
 H         -58.574905     -166.099686      -56.758228
 C         -61.650860     -165.767242      -55.684280
 C         -61.879028     -166.891479      -56.709538
 C         -62.523979     -164.558548      -55.531139
 C         -63.387539     -167.280289      -56.474213
 C         -63.962353     -165.095978      -55.522945
 C         -64.335793     -166.090027      -56.656334
 H         -61.213226     -167.708359      -56.590885
 H         -61.665390     -166.345856      -57.754944
 H         -62.283409     -163.893478      -54.619507
 H         -62.271507     -163.950821      -56.416916
 H         -63.539005     -167.804718      -55.498764
 H         -63.633545     -168.103561      -57.216648
 H         -64.713585     -164.382156      -55.573872
 H         -64.229324     -165.578110      -54.634380
 H         -65.273010     -166.532562      -56.398838
 H         -64.288246     -165.741989      -57.665058
