20
 generated by VMD
 C         -57.060204     -150.897018      -48.101067
 N         -58.158165     -150.940079      -48.550671
 H         -54.288441     -148.939651      -47.431747
 H         -56.031185     -150.936172      -47.681217
 C         -54.291073     -148.533401      -48.387764
 C         -53.527802     -149.367035      -49.432907
 C         -54.572887     -147.098907      -48.787552
 C         -54.347179     -149.281723      -50.665844
 C         -55.298485     -147.092209      -50.071629
 C         -54.527107     -147.844986      -51.118965
 H         -53.361919     -150.419220      -49.045719
 H         -52.573940     -148.813171      -49.730381
 H         -55.256706     -146.685425      -48.079136
 H         -53.611446     -146.479919      -48.856773
 H         -55.393883     -149.601395      -50.674332
 H         -53.752544     -149.826172      -51.428265
 H         -55.499935     -146.110580      -50.359505
 H         -56.320873     -147.707932      -49.952534
 H         -55.150288     -148.073410      -51.951660
 H         -53.529415     -147.525009      -51.510170
