20
 generated by VMD
 C         -70.689171     -198.798920      -64.336792
 N         -70.151802     -198.411316      -65.307098
 H         -72.291916     -196.529282      -66.847374
 H         -71.100746     -199.035034      -63.379726
 C         -73.168007     -195.900314      -67.007721
 C         -73.297119     -194.514526      -66.586449
 C         -74.043373     -196.367325      -68.129433
 C         -73.252563     -193.441696      -67.783264
 C         -74.831497     -195.241776      -68.820343
 C         -73.949059     -194.006165      -68.942207
 H         -72.501663     -194.324036      -65.890709
 H         -74.360611     -194.415543      -66.179092
 H         -73.432953     -196.909805      -68.844070
 H         -74.849289     -197.064926      -67.820030
 H         -72.208687     -193.271133      -68.050873
 H         -73.743179     -192.532516      -67.450974
 H         -75.754044     -194.912689      -68.357605
 H         -75.080391     -195.496704      -69.836609
 H         -73.292740     -194.095749      -69.793343
 H         -74.584534     -193.088898      -69.155487
