20
 generated by VMD
 C         -80.516373     -205.633286      -71.927559
 N         -79.848427     -206.584137      -71.868240
 H         -77.315269     -203.949692      -71.263382
 H         -81.125275     -204.798645      -72.048470
 C         -76.302010     -204.361862      -71.206337
 C         -75.005783     -203.624832      -71.156052
 C         -76.117989     -205.733047      -70.663071
 C         -74.321663     -203.660324      -69.831345
 C         -75.530869     -205.765839      -69.294777
 C         -74.137909     -205.110733      -69.231781
 H         -75.134819     -202.545044      -71.473244
 H         -74.359558     -204.055893      -71.879364
 H         -77.100037     -206.288589      -70.884125
 H         -75.388840     -206.235687      -71.328651
 H         -74.981720     -203.003860      -69.297646
 H         -73.389946     -203.240936      -69.960548
 H         -75.406860     -206.818695      -68.783379
 H         -76.213570     -205.175690      -68.695625
 H         -73.825928     -205.051804      -68.177795
 H         -73.452141     -205.764786      -69.751244
