20
 generated by VMD
 C         -11.509644      -33.722244       -9.125187
 N         -11.262843      -34.476276       -8.298472
 H         -11.389864      -37.100372       -8.013535
 H         -12.134261      -36.369831       -6.483280
 C         -12.233037      -37.223389       -7.266698
 C         -12.089528      -38.573986       -6.601826
 C         -13.644487      -37.076038       -7.892530
 C         -13.174385      -38.848446       -5.560661
 C         -14.740563      -37.304256       -6.807149
 C         -14.592062      -38.665154       -6.130307
 H         -11.139831      -38.531670       -6.068562
 H         -12.135329      -39.364086       -7.352397
 H         -13.778355      -36.013870       -8.294617
 H         -13.701637      -37.845135       -8.661122
 H         -13.064416      -38.010784       -4.884402
 H         -12.996701      -39.809147       -5.079958
 H         -15.789268      -37.141991       -7.301686
 H         -14.628354      -36.490585       -6.088337
 H         -15.368340      -38.920147       -5.397987
 H         -14.673549      -39.416241       -6.967950
