20
 generated by VMD
 C         -48.309368     -140.642609      -45.524963
 N         -47.209114     -140.331284      -45.509449
 H         -51.531700     -138.325623      -45.645134
 H         -49.391541     -140.674469      -45.526623
 C         -52.048534     -139.232758      -45.999329
 C         -52.429558     -139.373749      -47.453915
 C         -53.084354     -139.569458      -44.880180
 C         -53.291164     -140.583908      -47.577271
 C         -53.984093     -140.714233      -45.223694
 C         -54.466290     -140.635895      -46.685440
 H         -51.548386     -139.402573      -48.036861
 H         -53.066051     -138.527496      -47.731884
 H         -52.673409     -139.747910      -43.871983
 H         -53.639568     -138.624283      -44.609745
 H         -52.681370     -141.548172      -47.467865
 H         -53.559937     -140.534958      -48.711452
 H         -54.953148     -140.629257      -44.605728
 H         -53.369366     -141.600891      -45.056755
 H         -55.165691     -141.475372      -47.025860
 H         -55.069881     -139.696777      -46.637249
