20
 generated by VMD
 C         -69.608330     -180.131256      -61.797634
 N         -69.362434     -181.059647      -62.416584
 H         -66.590897     -180.512283      -59.205784
 H         -69.848595     -179.268402      -61.145172
 C         -66.170845     -179.535095      -59.636524
 C         -65.344223     -179.718048      -60.882431
 C         -66.119926     -178.200958      -58.893341
 C         -65.320549     -178.431900      -61.740097
 C         -65.720009     -176.944870      -59.683800
 C         -64.949860     -177.209915      -60.937939
 H         -65.624252     -180.528595      -61.618713
 H         -64.266182     -180.071930      -60.583973
 H         -67.004303     -177.950073      -58.310989
 H         -65.286591     -178.486176      -58.202480
 H         -66.433609     -178.301743      -61.966892
 H         -64.621223     -178.614563      -62.648746
 H         -65.154015     -176.204071      -59.153503
 H         -66.665733     -176.480988      -59.919010
 H         -65.171455     -176.452042      -61.618195
 H         -63.869301     -177.064392      -61.008278
