20
 generated by VMD
 C          -3.507297      -19.431353        2.856942
 N          -3.491103      -18.355244        3.148869
 H          -5.455979      -20.382877        0.140112
 H          -6.345231      -21.325033       -1.038905
 C          -6.196225      -20.319136       -0.674268
 C          -5.613650      -19.398863       -1.781587
 C          -7.536347      -19.816256       -0.172708
 C          -6.595605      -19.023375       -2.901134
 C          -8.500087      -19.522785       -1.370156
 C          -7.927900      -18.550629       -2.402542
 H          -4.705195      -19.761410       -2.262941
 H          -5.412641      -18.489761       -1.203883
 H          -8.062166      -20.539639        0.592905
 H          -7.349788      -18.755344        0.260864
 H          -6.840583      -19.854548       -3.589683
 H          -6.129772      -18.201706       -3.564580
 H          -9.437658      -19.070763       -0.941076
 H          -8.800235      -20.463846       -1.887584
 H          -8.570628      -18.506754       -3.277637
 H          -7.794200      -17.564693       -1.915639
