20
 generated by VMD
 C         -28.229889      -83.897102      -27.263294
 N         -27.480150      -83.427498      -26.531643
 H         -31.932207      -84.331413      -26.113253
 H         -29.057163      -84.288528      -27.920067
 C         -31.618830      -85.243584      -25.733047
 C         -31.442158      -85.370918      -24.299307
 C         -32.027138      -86.404633      -26.489164
 C         -32.800282      -85.863159      -23.695234
 C         -33.257454      -87.138206      -25.913805
 C         -33.137169      -87.248215      -24.288961
 H         -30.978800      -84.404381      -23.977362
 H         -30.654490      -86.007690      -24.031775
 H         -32.195465      -86.153419      -27.513884
 H         -31.165346      -87.078766      -26.451010
 H         -33.508617      -85.082161      -24.048090
 H         -32.680099      -85.868851      -22.553005
 H         -33.444275      -88.188812      -26.338169
 H         -34.230621      -86.570312      -26.009230
 H         -34.129784      -87.660889      -23.770903
 H         -32.435589      -88.087280      -24.243650
