20
 generated by VMD
 C         -74.235344     -200.606506      -66.139420
 N         -73.132629     -200.906296      -66.316757
 H         -76.084763     -198.773102      -67.855728
 H         -75.270729     -200.594284      -66.154930
 C         -75.270874     -198.144531      -68.280617
 C         -74.845383     -196.819946      -67.689934
 C         -74.487122     -198.921875      -69.296005
 C         -73.583679     -196.239319      -68.327431
 C         -73.259972     -198.181641      -69.870468
 C         -72.567963     -197.324036      -68.811203
 H         -74.679787     -196.957016      -66.682701
 H         -75.673134     -195.982635      -67.806908
 H         -74.141029     -199.914062      -68.867790
 H         -75.139153     -199.146179      -70.225662
 H         -73.203499     -195.580719      -67.553703
 H         -73.987099     -195.629532      -69.175377
 H         -73.419273     -197.598679      -70.774750
 H         -72.644852     -198.987411      -70.193008
 H         -72.143097     -197.960861      -68.024269
 H         -71.799065     -196.767365      -69.249832
