20
 generated by VMD
 C         -13.294162      -44.707863       -6.393855
 N         -14.163404      -44.194077       -5.901847
 H         -15.097322      -44.735744       -8.942090
 H         -14.496780      -43.932240      -10.441824
 C         -15.331361      -44.394611       -9.981900
 C         -16.445791      -43.302032       -9.959136
 C         -15.593415      -45.652618      -10.875619
 C         -16.912292      -43.033184      -11.375620
 C         -16.103580      -45.222355      -12.268797
 C         -17.327303      -44.286041      -12.161202
 H         -15.970778      -42.378338       -9.538634
 H         -17.304838      -43.642220       -9.383113
 H         -14.643801      -46.140270      -11.020420
 H         -16.358688      -46.265430      -10.419994
 H         -16.096968      -42.574131      -11.978069
 H         -17.738562      -42.298237      -11.371309
 H         -16.506273      -46.122475      -12.826284
 H         -15.277498      -44.806183      -12.771746
 H         -17.668146      -43.993614      -13.160170
 H         -18.204798      -44.722282      -11.739631
