20
 generated by VMD
 C         -68.459145     -195.015427      -65.384918
 N         -68.808792     -195.439758      -64.343925
 H         -71.269989     -194.500244      -67.505302
 H         -68.123100     -194.889633      -66.466316
 C         -72.066963     -193.961990      -67.055008
 C         -71.905800     -192.542740      -66.602768
 C         -73.460587     -194.200958      -67.759590
 C         -73.099052     -191.933762      -65.799919
 C         -74.541229     -193.768845      -66.780670
 C         -74.379990     -192.254028      -66.608116
 H         -71.652809     -191.851349      -67.509712
 H         -71.065254     -192.410995      -66.018417
 H         -73.504013     -193.575806      -68.781052
 H         -73.478981     -195.249664      -68.128746
 H         -73.134933     -190.886261      -65.663971
 H         -73.136719     -192.359055      -64.783234
 H         -74.407913     -194.265396      -65.807251
 H         -75.522141     -194.051437      -67.091148
 H         -74.261208     -191.751816      -67.547829
 H         -75.195145     -191.718033      -66.198845
