20
 generated by VMD
 C          -9.067092      -23.769865        2.581597
 N          -8.511781      -24.733383        2.703067
 H          -8.504807      -23.463850       -1.190904
 H          -9.288736      -22.674509       -2.535402
 C          -8.241409      -22.973351       -2.165596
 C          -7.612040      -24.076645       -3.106811
 C          -7.200274      -21.806593       -2.022970
 C          -7.359879      -23.560102       -4.510328
 C          -6.906245      -21.227003       -3.465167
 C          -6.416449      -22.304419       -4.472420
 H          -8.267477      -24.901745       -3.241060
 H          -6.771847      -24.530712       -2.588088
 H          -7.665087      -21.049129       -1.382211
 H          -6.238984      -22.177734       -1.619517
 H          -8.306467      -23.267790       -5.070402
 H          -6.785441      -24.310156       -5.052588
 H          -6.046726      -20.521286       -3.312137
 H          -7.788789      -20.687523       -3.855677
 H          -6.356213      -21.847231       -5.471990
 H          -5.448107      -22.641560       -4.204968
