20
 generated by VMD
 C          -0.905043      -13.414595        0.849020
 N          -0.303992      -13.230892       -0.067119
 H          -4.562210      -13.240799        2.036897
 H          -5.704140      -13.582337        0.669310
 C          -5.255328      -13.982535        1.572548
 C          -6.398959      -14.472906        2.476416
 C          -4.371536      -15.139542        1.036587
 C          -7.135881      -15.621200        1.845995
 C          -5.272123      -16.204943        0.384389
 C          -6.230690      -16.761709        1.418798
 H          -7.048236      -13.572207        2.622182
 H          -5.987062      -14.719582        3.440846
 H          -3.548994      -14.681298        0.424990
 H          -3.852710      -15.647411        1.978158
 H          -7.696613      -15.302818        0.992110
 H          -7.867358      -16.003119        2.537736
 H          -4.698060      -16.997149       -0.043271
 H          -5.769598      -15.754559       -0.466406
 H          -6.912592      -17.440899        0.905015
 H          -5.818021      -17.298193        2.287210
