20
 generated by VMD
 C         -23.631351      -69.291374      -16.657419
 N         -23.934578      -69.917786      -15.705736
 H         -23.910292      -66.344925      -19.323416
 H         -23.360428      -68.601151      -17.441416
 C         -24.450464      -67.218636      -19.427282
 C         -23.938559      -68.049789      -20.579910
 C         -25.931400      -67.241753      -19.317833
 C         -24.572714      -69.452713      -20.808596
 C         -26.399803      -68.711853      -19.444965
 C         -26.077641      -69.388817      -20.749037
 H         -22.874470      -68.273506      -20.403667
 H         -24.064192      -67.500275      -21.644135
 H         -26.179430      -66.857124      -18.314774
 H         -26.426668      -66.618454      -20.007565
 H         -24.381285      -70.127281      -20.004391
 H         -24.222776      -69.957115      -21.739094
 H         -27.457680      -68.724075      -19.362200
 H         -25.978489      -69.249901      -18.629080
 H         -26.592888      -70.368935      -20.593140
 H         -26.519499      -68.999100      -21.674486
