20
 generated by VMD
 C         -40.382607     -117.915436      -34.665989
 N         -39.445110     -117.305725      -35.044975
 H         -42.217995     -116.681351      -36.601810
 H         -41.337212     -118.221039      -34.416733
 C         -43.048588     -116.700089      -37.320972
 C         -42.857944     -116.837021      -38.748562
 C         -44.354198     -116.214287      -36.913177
 C         -44.037037     -117.435570      -39.493248
 C         -45.527740     -116.997215      -37.598091
 C         -45.411797     -116.886017      -39.116280
 H         -42.008183     -117.449493      -38.975071
 H         -42.628605     -115.881020      -39.162376
 H         -44.415775     -116.381813      -35.808151
 H         -44.341278     -115.092606      -37.212879
 H         -44.156864     -118.509537      -39.295876
 H         -43.982712     -117.428345      -40.609943
 H         -46.426308     -116.597000      -37.241833
 H         -45.440456     -118.009010      -37.189213
 H         -46.161011     -117.450356      -39.553673
 H         -45.724827     -115.953484      -39.586147
