20
 generated by VMD
 C         -57.370712     -164.113647      -56.687485
 N         -57.267689     -163.069672      -57.237778
 H         -59.939430     -165.465820      -54.749630
 H         -57.449375     -165.042740      -56.166374
 C         -60.834801     -164.945770      -54.635967
 C         -61.740093     -165.357666      -53.492172
 C         -61.437237     -164.373962      -55.937515
 C         -63.135834     -164.802704      -53.564247
 C         -62.831234     -163.814697      -55.841248
 C         -63.639278     -164.629410      -54.933289
 H         -61.255215     -164.882385      -52.618290
 H         -61.839962     -166.485764      -53.455471
 H         -60.664452     -163.599243      -56.096378
 H         -61.358772     -165.109222      -56.696354
 H         -63.147022     -163.820251      -53.062183
 H         -63.969711     -165.330154      -52.979218
 H         -63.385494     -163.943314      -56.752563
 H         -62.916252     -162.793579      -55.370998
 H         -64.697800     -164.217056      -54.827770
 H         -63.822784     -165.689926      -55.250492
