20
 generated by VMD
 C         -68.236389     -195.237839      -65.052879
 N         -68.815063     -196.099121      -64.507759
 H         -71.343773     -194.518188      -66.953125
 H         -67.825531     -194.220596      -65.366516
 C         -72.237335     -193.935623      -66.981293
 C         -72.035667     -192.475204      -66.788071
 C         -73.366295     -194.304916      -67.817406
 C         -73.240196     -191.880615      -66.079788
 C         -74.614670     -193.897141      -66.995071
 C         -74.558929     -192.412415      -66.609154
 H         -71.871765     -191.923172      -67.747620
 H         -71.183655     -192.304321      -66.193924
 H         -73.220947     -193.880798      -68.835510
 H         -73.412987     -195.362961      -67.901237
 H         -73.199554     -190.767517      -66.151848
 H         -73.305283     -192.052414      -64.980011
 H         -74.637169     -194.531433      -66.091705
 H         -75.552055     -194.133041      -67.512329
 H         -74.851532     -191.798492      -67.391289
 H         -75.421196     -192.245529      -65.780235
