20
 generated by VMD
 C         -66.229080     -177.921829      -56.874279
 N         -67.323151     -177.534439      -57.073158
 H         -64.195999     -175.955139      -58.820175
 H         -65.225334     -178.276001      -56.845566
 C         -64.274925     -174.909576      -59.310352
 C         -65.547127     -174.080200      -59.215622
 C         -63.407753     -174.498962      -60.495518
 C         -65.233124     -172.556580      -59.188583
 C         -63.080490     -172.999664      -60.241234
 C         -64.288948     -172.124527      -60.318581
 H         -65.929512     -174.338898      -58.262798
 H         -66.309883     -174.331894      -60.018261
 H         -62.527344     -175.227783      -60.658710
 H         -64.006996     -174.530167      -61.433300
 H         -64.722244     -172.313934      -58.277344
 H         -66.200500     -172.103271      -59.283089
 H         -62.317844     -172.706802      -61.037590
 H         -62.627869     -172.803802      -59.296860
 H         -64.296600     -171.077881      -60.278019
 H         -64.799149     -172.516800      -61.204788
