20
 generated by VMD
 C         -20.508190      -61.689930      -17.335859
 N         -19.471199      -61.236343      -17.026051
 H         -21.751429      -64.841499      -16.784220
 H         -21.522257      -61.863300      -17.900721
 C         -22.768887      -65.101494      -17.023039
 C         -23.090178      -64.241776      -18.246799
 C         -23.805542      -65.301437      -16.004932
 C         -24.379183      -64.683945      -18.804104
 C         -25.246454      -65.487602      -16.665312
 C         -25.522671      -64.525909      -17.841545
 H         -22.336565      -64.513573      -18.955837
 H         -23.063288      -63.240810      -18.008213
 H         -23.752495      -66.272743      -15.447962
 H         -23.781454      -64.676155      -15.160783
 H         -24.307657      -65.700157      -19.241989
 H         -24.672644      -64.111244      -19.679058
 H         -25.982117      -65.256210      -15.824856
 H         -25.333456      -66.512985      -17.076994
 H         -26.590073      -64.713730      -18.222843
 H         -25.530607      -63.528191      -17.430237
