20
 generated by VMD
 C         -28.086712      -87.816925      -26.654415
 N         -28.185272      -86.862656      -26.057774
 H         -31.117027      -89.107651      -25.997614
 H         -28.013227      -88.729942      -27.330919
 C         -32.150806      -88.834381      -26.202950
 C         -33.277519      -88.702797      -25.024153
 C         -32.651478      -88.772583      -27.576586
 C         -34.494442      -87.835335      -25.389654
 C         -33.640633      -87.691177      -27.731661
 C         -34.884949      -87.793869      -26.816698
 H         -32.757080      -88.180244      -24.134619
 H         -33.600052      -89.827774      -24.859020
 H         -31.902451      -88.495110      -28.348866
 H         -33.088818      -89.733170      -27.789267
 H         -34.309662      -86.840645      -24.855465
 H         -35.401634      -88.230064      -24.752621
 H         -34.002407      -87.636940      -28.810083
 H         -33.014942      -86.790207      -27.666845
 H         -35.481327      -86.926460      -26.966269
 H         -35.411873      -88.682434      -27.050400
