20
 generated by VMD
 C         -51.327091     -145.584564      -44.073715
 N         -51.308559     -146.419907      -44.822472
 H         -53.161556     -144.842651      -46.695461
 H         -51.520771     -144.825821      -43.318699
 C         -53.706753     -144.328384      -47.465244
 C         -52.780903     -144.212753      -48.625332
 C         -54.789310     -143.288544      -47.325062
 C         -53.396965     -143.872604      -49.972153
 C         -55.451031     -142.898788      -48.666801
 C         -54.408367     -142.660507      -49.839500
 H         -52.103264     -145.131561      -48.593433
 H         -52.174412     -143.280228      -48.292450
 H         -55.537991     -143.637711      -46.544460
 H         -54.426376     -142.413971      -46.829048
 H         -54.044956     -144.660400      -50.216690
 H         -52.700302     -143.808685      -50.739883
 H         -56.135956     -142.069290      -48.476337
 H         -56.254856     -143.581436      -49.064301
 H         -54.946110     -142.457550      -50.796215
 H         -53.686855     -141.759903      -49.623306
