20
 generated by VMD
 C         -40.046730     -100.719925      -30.859426
 N         -40.415184      -99.885002      -31.619795
 H         -37.141438     -103.172935      -31.026352
 H         -39.586029     -101.287163      -30.047625
 C         -36.581669     -102.255646      -31.181171
 C         -36.472466     -101.523186      -32.404404
 C         -35.734463     -101.863266      -30.080248
 C         -36.264179      -99.993492      -32.426483
 C         -35.537144     -100.296715      -30.037844
 C         -35.284916      -99.524933      -31.280281
 H         -37.344830     -101.707367      -33.065968
 H         -35.656937     -101.902016      -32.989140
 H         -36.086185     -102.183578      -29.120052
 H         -34.737595     -102.238777      -30.330252
 H         -37.321033      -99.520874      -32.464413
 H         -35.790134      -99.581993      -33.308834
 H         -34.680363     -100.065308      -29.417624
 H         -36.454639      -99.750168      -29.592224
 H         -35.480446      -98.459396      -31.227320
 H         -34.272518      -99.760727      -31.459896
