20
 generated by VMD
 C         -11.968470      -31.519360       -8.284922
 N         -12.106946      -30.656454       -7.623039
 H         -11.449115      -34.822826       -7.940746
 H         -12.703379      -34.012619       -6.925060
 C         -11.822247      -34.703499       -6.898450
 C         -10.797342      -34.014133       -5.993388
 C         -12.230187      -36.039986       -6.364428
 C         -11.248942      -33.821232       -4.583768
 C         -12.608315      -35.921261       -4.855326
 C         -11.579872      -35.168037       -4.009798
 H         -10.501719      -33.017410       -6.465855
 H          -9.936474      -34.665195       -5.929534
 H         -13.050358      -36.477268       -6.954628
 H         -11.385152      -36.731636       -6.355537
 H         -12.174219      -33.248325       -4.574459
 H         -10.365116      -33.329052       -4.104962
 H         -12.805179      -36.984837       -4.496005
 H         -13.505629      -35.406822       -4.849793
 H         -11.887208      -35.053028       -2.947285
 H         -10.618677      -35.724590       -3.963429
