20
 generated by VMD
 C         -29.409117      -89.709808      -25.642643
 N         -29.482546      -88.593140      -25.478230
 H         -31.655018      -90.834900      -27.450096
 H         -29.210106      -90.778770      -25.681746
 C         -32.521454      -90.131172      -27.364815
 C         -33.525467      -90.511841      -26.435383
 C         -32.982819      -89.397408      -28.559950
 C         -34.506107      -89.327248      -26.114536
 C         -33.793007      -88.131317      -28.287827
 C         -34.927780      -88.443054      -27.283453
 H         -33.133339      -90.859558      -25.424753
 H         -34.186317      -91.321548      -26.955746
 H         -32.059525      -89.171280      -29.120150
 H         -33.636761      -90.100586      -29.218170
 H         -34.047131      -88.725060      -25.280279
 H         -35.441555      -89.713921      -25.568163
 H         -34.309830      -87.616859      -29.200939
 H         -33.116772      -87.346428      -27.879349
 H         -35.346722      -87.368889      -27.021688
 H         -35.633522      -89.087486      -27.864185
