20
 generated by VMD
 C         -79.508644     -206.215042      -74.903206
 N         -79.512291     -206.496170      -73.787750
 H         -78.733757     -206.642899      -71.073380
 H         -79.210159     -205.846420      -75.900566
 C         -77.684410     -206.653641      -70.670715
 C         -76.601654     -205.762024      -71.258682
 C         -77.299004     -207.794083      -69.846657
 C         -75.337204     -205.714157      -70.438896
 C         -75.896439     -207.764542      -69.152733
 C         -74.875778     -207.111237      -70.128922
 H         -77.294998     -204.872589      -71.190941
 H         -76.293083     -205.923782      -72.332405
 H         -77.963058     -207.782120      -69.022514
 H         -77.377441     -208.761337      -70.400146
 H         -75.569511     -205.269745      -69.453423
 H         -74.563065     -205.038834      -70.866814
 H         -75.663651     -208.746201      -68.657448
 H         -76.052925     -207.117828      -68.261406
 H         -73.915451     -207.221817      -69.560669
 H         -74.661095     -207.718536      -71.018990
