20
 generated by VMD
 C          -2.078959       -9.722934       -0.100768
 N          -2.335869       -8.795036        0.402633
 H          -2.055158      -11.010969        2.730275
 H          -2.325940      -12.088533        4.039835
 C          -2.785456      -11.810454        3.048650
 C          -2.577012      -13.101226        2.255974
 C          -4.241114      -11.390635        3.134634
 C          -3.409670      -14.288415        2.727030
 C          -5.118698      -12.557074        3.622401
 C          -4.927045      -13.882122        2.838743
 H          -1.557880      -13.405692        2.260706
 H          -2.779047      -12.978085        1.185907
 H          -4.385101      -10.570545        3.773277
 H          -4.625703      -11.240081        2.153131
 H          -3.109185      -14.667517        3.691353
 H          -3.293082      -15.187329        2.133287
 H          -6.171113      -12.228652        3.611077
 H          -4.846346      -12.660346        4.709622
 H          -5.492225      -14.623571        3.418818
 H          -5.441645      -13.787058        1.845756
