20
 generated by VMD
 C         -27.837797      -81.690331      -26.660332
 N         -28.200338      -82.184700      -27.640680
 H         -30.610338      -83.686668      -26.096096
 H         -27.445507      -81.199051      -25.872856
 C         -31.066113      -84.414986      -25.454050
 C         -30.698217      -84.163307      -23.966251
 C         -31.796080      -85.715294      -25.864994
 C         -31.753489      -84.827240      -23.022943
 C         -32.834671      -86.081047      -24.824545
 C         -32.381432      -86.143456      -23.394258
 H         -30.627918      -83.108833      -23.532814
 H         -29.738445      -84.592514      -23.758257
 H         -32.323620      -85.692947      -26.882940
 H         -30.951513      -86.473259      -25.879698
 H         -32.513016      -83.984261      -22.617373
 H         -31.217796      -85.005219      -22.117262
 H         -33.197708      -87.081703      -24.972925
 H         -33.781796      -85.405365      -24.995863
 H         -33.202404      -86.351532      -22.670218
 H         -31.658428      -86.914803      -23.244652
