20
 generated by VMD
 C         -58.242123     -150.941483      -49.202225
 N         -58.369587     -152.008942      -48.644615
 H         -55.617912     -149.845520      -47.725353
 H         -58.061321     -149.938858      -49.589607
 C         -55.268578     -149.488647      -48.736511
 C         -54.308929     -150.389252      -49.417297
 C         -55.072334     -148.075043      -48.995495
 C         -54.220245     -149.990631      -50.939545
 C         -54.823700     -147.696686      -50.394520
 C         -53.815895     -148.478760      -51.091831
 H         -54.642471     -151.406891      -49.435780
 H         -53.287457     -150.185928      -49.023472
 H         -55.994846     -147.589783      -48.533436
 H         -54.116646     -147.824402      -48.436577
 H         -55.207813     -150.172363      -51.424362
 H         -53.444901     -150.731323      -51.289925
 H         -54.634754     -146.663300      -50.411709
 H         -55.736038     -147.784836      -51.146641
 H         -53.617203     -148.192322      -52.179329
 H         -52.873959     -148.342819      -50.566288
