20
 generated by VMD
 C         -73.912758     -201.386002      -65.320114
 N         -72.802368     -201.089218      -65.552887
 H         -75.219070     -198.071701      -66.943008
 H         -74.852730     -201.817490      -65.203957
 C         -74.559219     -197.592117      -67.621765
 C         -74.704849     -196.163879      -67.756378
 C         -73.867027     -198.275375      -68.717529
 C         -73.513367     -195.470215      -68.541000
 C         -73.730133     -197.460800      -70.040138
 C         -72.885063     -196.176407      -69.757629
 H         -74.749077     -195.590378      -66.735321
 H         -75.607849     -195.885452      -68.158218
 H         -72.917122     -198.712555      -68.297729
 H         -74.441071     -199.228149      -69.044029
 H         -72.655243     -195.251190      -67.864311
 H         -73.809395     -194.517349      -68.929527
 H         -74.729378     -197.263596      -70.272865
 H         -73.279053     -198.116684      -70.771866
 H         -71.924080     -196.526337      -69.546989
 H         -72.846870     -195.442368      -70.710907
