20
 generated by VMD
 C         -68.643311     -188.268600      -66.804092
 N         -68.498283     -189.420929      -66.718880
 H         -68.236763     -187.416245      -63.050461
 H         -68.759895     -187.148956      -66.820831
 C         -69.235344     -187.716827      -63.392365
 C         -69.517715     -189.228119      -63.406216
 C         -70.420486     -186.827515      -63.126167
 C         -70.851097     -189.594528      -64.112732
 C         -71.730690     -187.375671      -63.765347
 C         -72.088486     -188.779541      -63.545662
 H         -69.605354     -189.507278      -62.279175
 H         -68.582954     -189.912949      -63.754333
 H         -70.546936     -186.894821      -62.025146
 H         -70.212029     -185.813934      -63.599022
 H         -71.041473     -190.687256      -64.173676
 H         -70.779228     -189.334091      -65.194908
 H         -71.683556     -187.129700      -64.841293
 H         -72.639191     -186.911026      -63.374420
 H         -72.320290     -189.218033      -62.619247
 H         -73.091278     -189.055771      -64.143036
