20
 generated by VMD
 C         -62.176888     -172.374191      -54.939049
 N         -61.236290     -172.924438      -55.267075
 H         -61.851921     -170.932571      -58.521782
 H         -62.999027     -171.754852      -54.650017
 C         -62.619370     -170.268311      -58.061359
 C         -62.390598     -168.724945      -57.952206
 C         -64.004097     -170.905853      -58.083797
 C         -63.547859     -167.915741      -58.496441
 C         -65.081009     -169.992569      -58.627243
 C         -64.836731     -168.616699      -58.102028
 H         -61.513653     -168.498291      -58.540813
 H         -62.146656     -168.372665      -56.904243
 H         -64.011108     -171.792664      -58.779224
 H         -64.247475     -171.282120      -57.131855
 H         -63.504421     -167.948914      -59.634201
 H         -63.640228     -166.794144      -58.118469
 H         -66.036362     -170.409943      -58.286701
 H         -65.040428     -170.003876      -59.736031
 H         -65.560677     -167.979324      -58.656464
 H         -65.173355     -168.618286      -57.090599
