20
 generated by VMD
 C         -10.622729      -25.601871       -0.834210
 N         -11.177471      -24.657745       -0.562139
 H          -6.646669      -25.464565       -0.942143
 H          -8.405182      -25.297113       -1.285366
 C          -7.353209      -25.206509       -1.717187
 C          -7.143103      -26.096184       -3.012364
 C          -7.061739      -23.707724       -1.959708
 C          -7.941319      -25.527863       -4.257371
 C          -7.839754      -23.256544       -3.212513
 C          -7.481849      -24.056767       -4.461721
 H          -7.346283      -27.178751       -2.862847
 H          -6.051379      -26.202686       -3.238137
 H          -7.289691      -23.110760       -1.046783
 H          -5.975511      -23.552229       -2.066793
 H          -9.067092      -25.674314       -4.218572
 H          -7.678689      -26.144943       -5.171326
 H          -7.619519      -22.217398       -3.405691
 H          -8.905510      -23.370815       -2.992807
 H          -8.008132      -23.667620       -5.332335
 H          -6.419184      -23.929552       -4.646030
