20
 generated by VMD
 C         -31.696104      -78.700813      -26.426350
 N         -31.114285      -77.981537      -27.086332
 H         -29.176888      -80.116699      -24.611938
 H         -32.196579      -79.387695      -25.646372
 C         -28.894789      -80.855301      -23.936033
 C         -27.663107      -80.801926      -23.307467
 C         -29.933199      -81.886391      -23.646023
 C         -27.758327      -81.143974      -21.800058
 C         -30.014004      -82.136116      -22.099161
 C         -28.639675      -82.308350      -21.434624
 H         -27.202665      -79.822693      -23.404617
 H         -26.898653      -81.488007      -23.864157
 H         -30.792130      -81.455101      -24.013660
 H         -29.685682      -82.847198      -24.219448
 H         -28.241812      -80.295067      -21.361544
 H         -26.711061      -81.220932      -21.441525
 H         -30.743793      -82.924828      -21.982571
 H         -30.458584      -81.311142      -21.544704
 H         -28.760475      -82.499794      -20.325109
 H         -28.146646      -83.219604      -21.804203
