20
 generated by VMD
 C         -20.071518      -60.202068      -17.023151
 N         -18.960983      -60.391048      -17.252634
 H         -23.316992      -60.583088      -16.983490
 H         -21.119844      -60.082973      -16.581625
 C         -23.163511      -61.617435      -16.889044
 C         -23.436520      -62.612385      -17.974577
 C         -23.308313      -62.131783      -15.475071
 C         -23.864378      -64.085892      -17.833065
 C         -23.119198      -63.643135      -15.332363
 C         -23.963854      -64.488007      -16.366631
 H         -22.615162      -62.506756      -18.721260
 H         -24.306288      -62.051746      -18.517170
 H         -22.731741      -61.556293      -14.766229
 H         -24.426847      -62.026749      -15.241077
 H         -23.131308      -64.702614      -18.299791
 H         -24.872183      -64.345627      -18.188570
 H         -23.619410      -63.906357      -14.374943
 H         -22.024704      -63.797729      -15.437113
 H         -23.696445      -65.557426      -16.146456
 H         -25.091988      -64.300011      -16.179966
