20
 generated by VMD
 C         -60.284950     -156.196060      -56.124866
 N         -60.739662     -155.238907      -55.747272
 H         -59.787952     -157.942001      -52.920803
 H         -59.820381     -157.136566      -56.451443
 C         -58.841080     -157.885269      -52.314972
 C         -58.182011     -156.551773      -52.265461
 C         -58.139538     -159.104568      -51.825233
 C         -57.233639     -156.359970      -51.176380
 C         -57.319733     -158.815262      -50.468304
 C         -56.419537     -157.614410      -50.821041
 H         -58.757397     -155.630783      -52.308750
 H         -57.720360     -156.372299      -53.188461
 H         -58.874603     -159.944290      -51.508034
 H         -57.543339     -159.512421      -52.661789
 H         -57.723553     -156.059692      -50.308865
 H         -56.606293     -155.472443      -51.422443
 H         -56.661961     -159.717697      -50.259556
 H         -57.842079     -158.528397      -49.541595
 H         -55.733589     -157.434433      -50.044247
 H         -55.715275     -157.943130      -51.674999
