20
 generated by VMD
 C         -55.825016     -149.111374      -45.732193
 N         -55.400402     -149.814835      -44.936138
 H         -54.471756     -148.370529      -48.465340
 H         -56.042019     -148.435959      -46.536415
 C         -54.199356     -147.348862      -48.832081
 C         -53.150158     -147.364151      -49.807613
 C         -54.855045     -146.015472      -48.504490
 C         -53.477997     -146.624207      -51.114201
 C         -55.227833     -145.207321      -49.766842
 C         -54.056908     -145.176331      -50.837364
 H         -52.911064     -148.480377      -50.018314
 H         -52.240356     -146.804901      -49.496296
 H         -55.725494     -146.192902      -47.881145
 H         -54.174171     -145.485123      -47.865479
 H         -54.117054     -147.159683      -51.779736
 H         -52.551319     -146.358322      -51.678917
 H         -55.552364     -144.144440      -49.470772
 H         -56.212269     -145.574890      -50.184570
 H         -54.363514     -144.688293      -51.738327
 H         -53.392883     -144.520721      -50.277584
