20
 generated by VMD
 C         -69.798607     -183.235977      -65.700790
 N         -70.751076     -182.640564      -65.869087
 H         -68.172638     -183.690918      -63.058178
 H         -68.842079     -183.727036      -65.454697
 C         -67.763245     -183.289886      -62.141357
 C         -67.721199     -184.028503      -60.812714
 C         -67.285416     -181.881805      -62.420998
 C         -66.879417     -183.333801      -59.758579
 C         -66.676216     -181.230423      -61.129108
 C         -67.140823     -181.828979      -59.842129
 H         -67.336365     -185.071106      -61.054443
 H         -68.863503     -184.034653      -60.355423
 H         -66.688759     -181.740280      -63.398056
 H         -68.061378     -181.183517      -62.576664
 H         -65.877090     -183.458954      -59.857544
 H         -67.269798     -183.671173      -58.813431
 H         -66.943352     -180.157120      -61.282475
 H         -65.565163     -181.166504      -61.116108
 H         -66.554726     -181.310150      -59.035545
 H         -68.177521     -181.647034      -59.790993
