20
 generated by VMD
 C         -22.595566      -52.548931      -11.962715
 N         -23.754055      -52.395992      -11.894542
 H         -20.049551      -53.971081      -14.426407
 H         -21.459330      -52.706600      -12.080462
 C         -18.994225      -53.655437      -14.095585
 C         -18.448521      -52.244129      -14.424677
 C         -18.019606      -54.642971      -13.428348
 C         -16.922213      -52.104309      -14.343666
 C         -17.186403      -53.857250      -12.380871
 C         -16.302250      -52.972874      -13.207525
 H         -18.925274      -51.558838      -13.700062
 H         -18.690746      -51.931290      -15.477128
 H         -18.485029      -55.495152      -12.880054
 H         -17.523073      -55.112400      -14.284040
 H         -16.768660      -51.041149      -14.144725
 H         -16.404806      -52.305756      -15.265099
 H         -16.612181      -54.472519      -11.737846
 H         -17.842392      -53.225098      -11.706501
 H         -15.730512      -52.362663      -12.460756
 H         -15.488580      -53.670940      -13.605568
