20
 generated by VMD
 C         -26.979744      -72.313629      -17.559385
 N         -27.621761      -73.230827      -17.262161
 H         -24.593409      -70.299187      -18.643660
 H         -26.573729      -71.221222      -17.790756
 C         -24.956711      -70.399414      -19.639301
 C         -24.324797      -71.609833      -20.430010
 C         -25.620573      -69.374138      -20.494591
 C         -25.282860      -72.274849      -21.425268
 C         -26.611214      -70.166267      -21.540447
 C         -25.815956      -71.299629      -22.369089
 H         -23.849209      -72.395340      -19.611183
 H         -23.429783      -71.256882      -21.057070
 H         -26.202450      -68.571144      -19.985197
 H         -24.807901      -68.770218      -21.020941
 H         -26.098873      -72.799164      -20.883841
 H         -24.699438      -73.063087      -21.957655
 H         -27.151302      -69.534470      -22.219734
 H         -27.415979      -70.653969      -20.996611
 H         -26.361645      -71.717667      -23.222994
 H         -24.884951      -70.893272      -22.919081
