20
 generated by VMD
 C         -40.341015     -118.571030      -35.071529
 N         -39.445904     -117.853241      -35.022865
 H         -43.227776     -116.743240      -36.210258
 H         -41.028366     -119.339600      -35.065178
 C         -43.654236     -116.863464      -37.176247
 C         -42.853756     -117.179008      -38.422810
 C         -44.926392     -116.173302      -37.253166
 C         -43.773693     -117.948448      -39.365738
 C         -45.895863     -117.009079      -38.044136
 C         -45.203461     -117.222427      -39.470776
 H         -41.880806     -117.620644      -38.057228
 H         -42.512901     -116.146164      -38.765327
 H         -45.441441     -115.901321      -36.337177
 H         -44.763363     -115.279243      -37.704456
 H         -43.771549     -118.986076      -39.136005
 H         -43.333778     -117.889969      -40.351063
 H         -46.910984     -116.529724      -38.360729
 H         -45.920471     -117.930679      -37.462608
 H         -45.671059     -118.008530      -40.108036
 H         -45.084442     -116.380753      -40.066349
