20
 generated by VMD
 C         -57.899986     -150.651733      -48.664604
 N         -58.031986     -151.761337      -48.617233
 H         -55.446163     -149.615768      -47.608864
 H         -57.900623     -149.600433      -48.772949
 C         -54.937763     -149.218872      -48.504433
 C         -54.161190     -150.050827      -49.433922
 C         -54.968246     -147.784317      -48.893890
 C         -54.186104     -149.661606      -50.840630
 C         -54.983799     -147.418686      -50.399876
 C         -54.009895     -148.236832      -51.158333
 H         -54.678261     -151.024368      -49.416592
 H         -53.147278     -150.162201      -49.088566
 H         -55.750008     -147.298691      -48.354328
 H         -53.955486     -147.483505      -48.493271
 H         -55.142723     -149.985992      -51.298237
 H         -53.388634     -150.145554      -51.447678
 H         -54.674831     -146.371704      -50.486641
 H         -56.085453     -147.560318      -50.633430
 H         -54.318573     -148.222488      -52.188023
 H         -52.928650     -147.932785      -51.154739
