20
 generated by VMD
 C         -40.383057     -107.025620      -37.751862
 N         -39.290215     -106.613686      -37.867290
 H         -38.743008     -108.003990      -34.305981
 H         -41.438587     -107.230484      -37.599228
 C         -39.361179     -108.745140      -33.774864
 C         -38.872860     -110.180351      -33.412144
 C         -40.789673     -108.903580      -34.300575
 C         -39.713158     -110.734123      -32.256004
 C         -41.667923     -109.576065      -33.267448
 C         -41.150600     -110.806175      -32.663555
 H         -37.800072     -110.104424      -33.219704
 H         -38.916550     -110.833794      -34.298031
 H         -41.238544     -107.879143      -34.527367
 H         -40.778831     -109.439919      -35.247524
 H         -39.443729     -109.897377      -31.479019
 H         -39.513973     -111.701355      -31.803860
 H         -42.625511     -109.677856      -33.645344
 H         -41.814732     -108.960632      -32.405525
 H         -41.667400     -111.067986      -31.832769
 H         -41.266159     -111.668594      -33.368870
