20
 generated by VMD
 C         -61.625996     -155.993271      -53.928280
 N         -61.383816     -154.941696      -54.431854
 H         -58.652287     -155.292053      -51.939171
 H         -61.843369     -156.964600      -53.477333
 C         -57.653397     -155.168900      -51.504288
 C         -57.477058     -154.329895      -50.299778
 C         -56.502750     -155.333527      -52.412544
 C         -56.162197     -154.977417      -49.636612
 C         -55.280678     -155.815460      -51.800552
 C         -54.978798     -155.061707      -50.552895
 H         -58.310486     -154.380020      -49.562866
 H         -57.448338     -153.205444      -50.676895
 H         -56.789780     -156.030167      -53.182571
 H         -56.313820     -154.387451      -52.968739
 H         -56.355019     -155.984421      -49.084564
 H         -55.895031     -154.416641      -48.723598
 H         -54.469994     -155.724197      -52.539513
 H         -55.271725     -156.937210      -51.655941
 H         -54.214439     -155.498413      -50.026302
 H         -54.715946     -153.990051      -50.870640
