20
 generated by VMD
 C         -11.331394      -32.445580       -8.873446
 N         -12.080074      -32.823383       -9.574907
 H         -11.913101      -33.629723       -6.264908
 H         -12.426332      -34.313957       -4.781618
 C         -12.140888      -34.578701       -5.801578
 C         -10.988595      -35.560432       -5.597816
 C         -13.293921      -35.302357       -6.493103
 C         -11.454526      -36.812801       -4.849262
 C         -13.841097      -36.495750       -5.677260
 C         -12.726826      -37.507740       -5.458250
 H         -10.133911      -35.045219       -5.119485
 H         -10.591656      -35.802521       -6.559103
 H         -14.140913      -34.618553       -6.654532
 H         -12.944822      -35.556942       -7.533732
 H         -11.621102      -36.643066       -3.781934
 H         -10.630486      -37.581432       -4.859897
 H         -14.670571      -36.936108       -6.250226
 H         -14.293975      -36.162651       -4.707720
 H         -13.135047      -38.195354       -4.701398
 H         -12.465401      -38.054298       -6.322863
