20
 generated by VMD
 C         -57.891006     -168.303146      -55.100945
 N         -56.734207     -168.546844      -54.867355
 H         -61.604366     -167.377380      -55.272923
 H         -58.947350     -167.993744      -55.156467
 C         -62.313110     -166.925613      -55.996460
 C         -62.642014     -167.539948      -57.377914
 C         -63.023083     -165.712387      -55.579082
 C         -64.160912     -167.466309      -57.687218
 C         -64.604507     -165.678391      -55.927353
 C         -64.802551     -166.072891      -57.476860
 H         -62.289227     -168.575516      -57.283012
 H         -61.823021     -167.097610      -58.104538
 H         -62.926399     -165.713257      -54.515453
 H         -62.464695     -164.934662      -56.067276
 H         -64.632149     -168.291656      -57.148232
 H         -64.250595     -167.720673      -58.735737
 H         -65.060539     -164.688782      -55.752167
 H         -65.377449     -166.381149      -55.463448
 H         -65.915764     -166.094696      -57.753521
 H         -64.242447     -165.379288      -58.153397
