20
 generated by VMD
 C         -50.790577     -129.706482      -46.111309
 N         -50.854908     -130.365829      -45.172932
 H         -48.142879     -131.735123      -44.299511
 H         -50.976326     -129.436493      -47.147480
 C         -47.995735     -131.745407      -43.210331
 C         -48.249554     -132.921448      -42.506756
 C         -47.941719     -130.341782      -42.584179
 C         -47.569164     -132.949768      -41.104591
 C         -47.245667     -130.395798      -41.216751
 C         -47.828178     -131.652054      -40.376266
 H         -47.830910     -133.807739      -43.043579
 H         -49.312222     -133.052658      -42.539585
 H         -47.467674     -129.650940      -43.228561
 H         -48.929985     -130.000107      -42.526596
 H         -46.487850     -133.127686      -41.336170
 H         -48.017490     -133.846786      -40.678417
 H         -47.456417     -129.507019      -40.574310
 H         -46.171246     -130.565201      -41.357128
 H         -47.432411     -131.564117      -39.323467
 H         -48.898327     -131.460403      -40.231808
