20
 generated by VMD
 C         -73.847733     -201.586899      -65.384003
 N         -72.881691     -201.034760      -65.750420
 H         -75.084572     -198.073853      -66.771690
 H         -74.816895     -201.901199      -64.968208
 C         -74.727486     -197.620102      -67.693756
 C         -74.857758     -196.226913      -68.027481
 C         -74.329651     -198.396057      -68.954468
 C         -73.522682     -195.625732      -68.495308
 C         -73.571854     -197.615875      -70.024170
 C         -72.631233     -196.578506      -69.397179
 H         -75.234428     -195.689072      -67.091881
 H         -75.677597     -196.019974      -68.814552
 H         -73.691490     -199.188660      -68.667229
 H         -75.229126     -198.762024      -69.311386
 H         -72.874191     -195.422012      -67.607986
 H         -73.723816     -194.693329      -69.063904
 H         -74.216370     -197.027405      -70.791733
 H         -73.004082     -198.305389      -70.615593
 H         -71.838791     -197.029465      -68.663452
 H         -72.199417     -196.015869      -70.145775
