20
 generated by VMD
 C         -19.999306      -56.201550      -16.840508
 N         -21.058668      -56.397747      -16.327461
 H         -22.192474      -59.365612      -17.233521
 H         -18.962149      -55.882584      -16.918371
 C         -22.465132      -60.176296      -16.626619
 C         -22.749987      -59.578239      -15.252763
 C         -21.941059      -61.634075      -16.660366
 C         -21.567057      -59.746330      -14.414202
 C         -20.865522      -61.885525      -15.468355
 C         -21.161800      -61.181259      -14.188593
 H         -23.544828      -60.154240      -14.826401
 H         -23.025196      -58.585663      -15.326378
 H         -22.801506      -62.385162      -16.659842
 H         -21.363132      -61.693367      -17.608686
 H         -21.692595      -59.122658      -13.458216
 H         -20.660757      -59.264343      -14.837716
 H         -19.916567      -61.613956      -15.889978
 H         -20.805580      -62.966896      -15.406511
 H         -22.081118      -61.695995      -13.805654
 H         -20.371971      -61.207932      -13.451693
