20
 generated by VMD
 C          -6.181087      -22.280825        1.919160
 N          -6.446975      -22.956446        2.772429
 H          -5.501653      -19.425663       -0.696198
 H          -6.707301      -20.505518       -0.204934
 C          -6.272421      -20.069281       -1.087910
 C          -5.811178      -21.215160       -1.938899
 C          -7.132187      -19.072115       -1.830785
 C          -6.919074      -21.945265       -2.600034
 C          -8.325635      -19.873291       -2.458404
 C          -7.824050      -21.046902       -3.352499
 H          -5.212883      -21.880634       -1.344961
 H          -5.106631      -20.887794       -2.767267
 H          -7.657457      -18.319729       -1.136387
 H          -6.588406      -18.575838       -2.709462
 H          -7.518573      -22.541759       -1.875880
 H          -6.440240      -22.629580       -3.341314
 H          -8.862688      -19.218567       -3.165004
 H          -9.017601      -20.225416       -1.673556
 H          -8.757626      -21.635754       -3.537542
 H          -7.455411      -20.684040       -4.347002
