20
 generated by VMD
 C         -59.938335     -152.405518      -51.041275
 N         -60.818993     -153.043640      -51.369106
 H         -56.755585     -152.599030      -48.832836
 H         -59.176758     -151.733032      -50.599667
 C         -56.040756     -152.058441      -49.442104
 C         -54.670990     -152.655121      -49.580120
 C         -56.056614     -150.588196      -49.690712
 C         -53.949303     -152.336136      -50.850422
 C         -55.228512     -150.041489      -50.906807
 C         -53.877682     -150.783539      -51.034546
 H         -54.751274     -153.741257      -49.542534
 H         -54.065510     -152.284012      -48.663639
 H         -57.031345     -150.185760      -49.789745
 H         -55.613655     -149.986572      -48.902546
 H         -54.648369     -152.607925      -51.658222
 H         -53.000530     -152.883682      -51.002396
 H         -55.078663     -148.872025      -50.797535
 H         -55.732384     -150.123245      -51.851116
 H         -53.296307     -150.628250      -52.052586
 H         -53.271793     -150.460159      -50.237137
