20
 generated by VMD
 C         -63.286285     -174.459305      -56.646557
 N         -62.373413     -174.967621      -56.106609
 H         -66.436760     -173.060730      -58.294041
 H         -64.032417     -173.908966      -57.213840
 C         -65.642319     -172.419022      -58.601555
 C         -65.641312     -170.968216      -58.138081
 C         -64.628448     -172.846878      -59.650558
 C         -64.240105     -170.360443      -58.131161
 C         -63.321712     -172.239716      -59.473236
 C         -63.490913     -170.739151      -59.355698
 H         -66.005814     -170.852692      -57.190437
 H         -66.355255     -170.283432      -58.801712
 H         -64.434044     -173.990601      -59.512840
 H         -65.016754     -172.691483      -60.691872
 H         -63.789833     -170.827591      -57.153103
 H         -64.288712     -169.220551      -57.965504
 H         -62.724030     -172.594162      -60.321156
 H         -62.949669     -172.526169      -58.475826
 H         -62.472446     -170.336349      -59.316303
 H         -64.024704     -170.319290      -60.303562
