20
 generated by VMD
 C         -23.098930      -53.456371      -13.870606
 N         -23.743490      -52.908695      -14.596910
 H         -20.788240      -55.152340      -14.564410
 H         -22.249302      -53.764244      -13.114463
 C         -19.629297      -55.144878      -14.148040
 C         -19.163111      -53.774872      -13.703282
 C         -18.690210      -56.253944      -14.497999
 C         -17.943611      -53.771042      -12.835039
 C         -17.548939      -56.218575      -13.554081
 C         -16.921101      -54.874695      -13.177366
 H         -19.968895      -53.187614      -13.264276
 H         -18.963764      -53.175461      -14.572847
 H         -19.220533      -57.146954      -14.415433
 H         -18.367390      -56.151909      -15.535195
 H         -18.329672      -53.955227      -11.831013
 H         -17.309505      -52.874386      -12.830340
 H         -16.732517      -56.806107      -13.981668
 H         -17.803402      -56.715122      -12.599284
 H         -16.232109      -54.982414      -12.333735
 H         -16.358608      -54.521721      -14.098531
