20
 generated by VMD
 C         -41.586285     -119.508232      -34.410248
 N         -41.355400     -120.091034      -35.392853
 H         -43.408127     -118.778709      -36.776157
 H         -41.701786     -118.797142      -33.658817
 C         -43.786846     -118.243034      -37.632118
 C         -42.969620     -118.227547      -38.842369
 C         -45.125511     -117.567459      -37.693420
 C         -43.789520     -118.586838      -40.107700
 C         -45.899437     -118.040070      -38.944836
 C         -45.140141     -117.847237      -40.270920
 H         -42.154488     -118.985428      -38.847260
 H         -42.402191     -117.272453      -39.184658
 H         -45.578297     -117.912514      -36.744289
 H         -45.103764     -116.542404      -37.701393
 H         -44.148384     -119.598740      -40.011951
 H         -43.220020     -118.551224      -41.105312
 H         -46.843143     -117.570023      -38.919323
 H         -45.991917     -119.100754      -38.892414
 H         -45.749352     -118.376717      -41.076427
 H         -44.959961     -116.825752      -40.513252
