20
 generated by VMD
 C         -61.595680     -155.900497      -53.788589
 N         -61.506287     -154.961594      -54.525810
 H         -58.660198     -155.295380      -51.830154
 H         -61.702904     -156.859955      -53.218624
 C         -57.645958     -155.162521      -51.525753
 C         -57.365833     -154.399261      -50.272022
 C         -56.551994     -155.280502      -52.545712
 C         -56.195477     -154.900131      -49.574253
 C         -55.193043     -155.759857      -51.791679
 C         -54.932171     -154.947952      -50.445702
 H         -58.296127     -154.428558      -49.733688
 H         -57.144402     -153.392258      -50.387596
 H         -56.844360     -155.984680      -53.379131
 H         -56.155170     -154.369644      -53.078888
 H         -56.402813     -155.896973      -49.296928
 H         -55.943684     -154.341049      -48.678566
 H         -54.343719     -155.748520      -52.478634
 H         -55.338779     -156.769485      -51.430462
 H         -54.031624     -155.514603      -49.941643
 H         -54.641602     -153.984665      -50.763706
