20
 generated by VMD
 C         -24.169813      -69.859024      -16.662584
 N         -24.446039      -70.226181      -15.615092
 H         -23.712372      -67.246132      -18.858780
 H         -23.851492      -69.516579      -17.737501
 C         -24.327824      -67.942711      -19.441893
 C         -23.804619      -68.497520      -20.711971
 C         -25.841272      -67.696762      -19.473562
 C         -24.688747      -69.734184      -20.984625
 C         -26.635082      -68.892899      -19.861727
 C         -26.218519      -69.521660      -21.085659
 H         -22.657505      -68.712006      -20.537893
 H         -23.914175      -67.845535      -21.577843
 H         -26.155039      -67.437851      -18.494165
 H         -25.988453      -67.020821      -20.240068
 H         -24.622078      -70.527924      -20.160118
 H         -24.330061      -70.237289      -21.900921
 H         -27.694521      -68.506485      -19.941996
 H         -26.662447      -69.615692      -18.969511
 H         -26.707090      -70.502846      -21.098150
 H         -26.313210      -68.977516      -22.023304
