20
 generated by VMD
 C         -77.172958     -203.681732      -66.937508
 N         -77.971817     -204.342773      -66.420418
 H         -75.899712     -200.586975      -68.877525
 H         -76.372711     -203.050995      -67.153557
 C         -74.954254     -200.011108      -69.192444
 C         -74.615059     -198.721100      -68.570007
 C         -73.726288     -200.848236      -69.597389
 C         -73.541466     -197.981842      -69.211243
 C         -72.848465     -199.966476      -70.522583
 C         -73.120399     -198.537506      -70.652031
 H         -74.480522     -198.859848      -67.465515
 H         -75.623817     -198.203629      -68.697884
 H         -73.258080     -201.169891      -68.712082
 H         -74.258476     -201.676636      -70.143227
 H         -72.688133     -197.789093      -68.562233
 H         -73.921875     -197.002823      -69.427948
 H         -72.931519     -200.405029      -71.545921
 H         -71.771034     -200.230957      -70.256859
 H         -72.307297     -197.949005      -71.017349
 H         -73.836578     -198.387955      -71.502441
