20
 generated by VMD
 C         -32.569061      -93.108994      -25.599554
 N         -32.858990      -94.239395      -25.629896
 H         -33.429909      -94.365662      -28.493294
 H         -32.137192      -92.057220      -25.527990
 C         -34.220177      -93.998436      -29.100155
 C         -35.473404      -93.637680      -28.420807
 C         -33.795860      -93.276108      -30.298607
 C         -35.245533      -92.159424      -27.942715
 C         -33.472561      -91.847137      -29.962765
 C         -34.679672      -91.296501      -29.128342
 H         -35.806953      -94.143211      -27.448837
 H         -36.300629      -93.649887      -29.211758
 H         -33.079315      -93.941025      -30.806807
 H         -34.627014      -93.230797      -31.011803
 H         -34.802689      -91.939674      -27.014149
 H         -36.223377      -91.618294      -27.843107
 H         -33.227310      -91.430191      -30.939501
 H         -32.625088      -91.775314      -29.289473
 H         -34.391720      -90.212982      -28.859558
 H         -35.507244      -91.167610      -29.841436
