20
 generated by VMD
 C         -40.597988     -106.466583      -37.193367
 N         -39.660488     -106.720871      -37.796394
 H         -38.467823     -108.023262      -34.493591
 H         -41.513027     -106.059906      -36.762836
 C         -39.091373     -108.698959      -33.974079
 C         -38.580875     -109.897896      -33.133743
 C         -40.508446     -108.841637      -34.484978
 C         -39.569519     -110.297592      -32.024742
 C         -41.468052     -109.265236      -33.383080
 C         -41.010429     -110.411552      -32.549385
 H         -37.628632     -109.440056      -32.725033
 H         -38.243141     -110.659706      -33.888607
 H         -40.807163     -107.860008      -34.836979
 H         -40.498608     -109.516174      -35.274399
 H         -39.650814     -109.612953      -31.261444
 H         -39.157955     -111.160133      -31.616203
 H         -42.396511     -109.588036      -33.879158
 H         -41.630207     -108.442429      -32.677181
 H         -41.750965     -110.577942      -31.712902
 H         -41.147297     -111.295723      -33.281559
