20
 generated by VMD
 C         -10.195671      -33.086807       -9.346653
 N         -11.143549      -32.517796       -9.054477
 H         -11.807474      -36.508858       -8.079488
 H         -12.358485      -36.009308       -6.506767
 C         -12.422486      -36.850697       -7.177347
 C         -11.946161      -38.134613       -6.463257
 C         -13.927521      -36.967464       -7.445165
 C         -12.735604      -38.320240       -5.161120
 C         -14.770648      -37.225101       -6.143130
 C         -14.262417      -38.403782       -5.333511
 H         -10.855228      -37.986012       -6.288280
 H         -12.143941      -38.958088       -7.155953
 H         -14.325826      -35.990097       -7.874196
 H         -14.147076      -37.823315       -8.058967
 H         -12.639192      -37.502850       -4.384482
 H         -12.386249      -39.235317       -4.726528
 H         -15.872126      -37.282513       -6.364138
 H         -14.666242      -36.296974       -5.584984
 H         -14.657136      -38.474400       -4.307473
 H         -14.556132      -39.334229       -5.776900
