20
 generated by VMD
 C         -29.351791      -74.251930      -20.303652
 N         -30.318148      -74.884399      -20.246119
 H         -26.712200      -73.981438      -18.877701
 H         -28.616631      -73.548691      -20.160700
 C         -26.255606      -73.919029      -19.878939
 C         -25.724737      -75.080215      -20.755394
 C         -25.783100      -72.591927      -20.415987
 C         -26.101515      -74.815521      -22.286127
 C         -26.113157      -72.393715      -21.893665
 C         -25.474705      -73.405609      -22.835350
 H         -26.403984      -75.910522      -20.470133
 H         -24.683252      -75.130539      -20.571678
 H         -26.319496      -71.763390      -19.956629
 H         -24.692354      -72.438850      -20.490086
 H         -27.156834      -74.916626      -22.396193
 H         -25.645103      -75.505249      -22.996328
 H         -25.553268      -71.469833      -22.297981
 H         -27.152487      -72.251732      -22.137671
 H         -25.808346      -73.304405      -23.875235
 H         -24.407385      -73.498489      -22.664391
