20
 generated by VMD
 C         -49.347603     -132.807541      -47.052303
 N         -50.070202     -131.812378      -47.057148
 H         -47.744415     -134.152283      -44.317036
 H         -48.498642     -133.432724      -46.767197
 C         -48.595173     -134.509109      -43.801559
 C         -49.078552     -135.981888      -43.866013
 C         -49.341465     -133.514221      -42.988281
 C         -49.979351     -136.378235      -42.621117
 C         -50.198792     -134.087067      -41.850483
 C         -50.970600     -135.307999      -42.309124
 H         -48.189732     -136.616608      -43.864334
 H         -49.602528     -136.182114      -44.761505
 H         -48.746677     -132.637512      -42.601490
 H         -49.985699     -133.134247      -43.814720
 H         -49.207062     -136.498978      -41.839897
 H         -50.403458     -137.350723      -42.980228
 H         -50.868462     -133.280731      -41.481800
 H         -49.601868     -134.399384      -40.950726
 H         -51.686859     -135.843552      -41.639011
 H         -51.749443     -135.184357      -43.164719
