20
 generated by VMD
 C         -57.022404     -163.677185      -56.700382
 N         -57.240780     -162.684143      -57.294540
 H         -59.950542     -163.963730      -54.511200
 H         -56.773464     -164.603973      -56.173988
 C         -60.769814     -164.568649      -54.629551
 C         -61.529659     -165.209579      -53.443207
 C         -61.498997     -164.676392      -55.958965
 C         -62.958641     -164.562103      -53.272282
 C         -62.846668     -163.829666      -55.795757
 C         -63.740486     -164.168091      -54.555458
 H         -60.963551     -164.858261      -52.544907
 H         -61.632164     -166.260895      -53.563229
 H         -60.936298     -164.194366      -56.748272
 H         -61.805676     -165.670563      -56.396870
 H         -62.726372     -163.687897      -52.681004
 H         -63.608891     -165.040131      -52.555340
 H         -63.357666     -163.824753      -56.702312
 H         -62.466328     -162.933228      -55.580009
 H         -64.456001     -163.351120      -54.460377
 H         -64.359123     -165.046997      -54.899647
