20
 generated by VMD
 C         -78.369156     -209.607544      -76.968536
 N         -78.570602     -208.938919      -77.927109
 H         -78.936577     -210.553040      -73.451691
 H         -78.087311     -210.276230      -76.089348
 C         -78.860565     -211.594757      -73.013153
 C         -77.764687     -212.038315      -72.167007
 C         -80.036629     -212.547699      -72.849174
 C         -78.225563     -212.269409      -70.618645
 C         -80.446312     -213.031876      -71.464355
 C         -79.309105     -213.316696      -70.459259
 H         -76.978065     -211.274734      -72.205864
 H         -77.492729     -213.018005      -72.522522
 H         -80.902390     -212.069397      -73.264381
 H         -79.922417     -213.404205      -73.616753
 H         -78.593025     -211.288513      -70.225616
 H         -77.373917     -212.617950      -70.038673
 H         -80.999397     -214.030930      -71.430351
 H         -81.074005     -212.366104      -71.049469
 H         -79.628464     -213.397003      -69.394737
 H         -78.814316     -214.186234      -70.791870
