20
 generated by VMD
 C         -50.040462     -127.743340      -40.616356
 N         -50.954342     -128.053604      -41.308525
 H         -47.486103     -127.594406      -41.457581
 H         -49.274586     -127.421989      -39.921787
 C         -46.724632     -126.885620      -41.047127
 C         -45.673870     -127.405212      -40.153816
 C         -46.894810     -125.376297      -41.373318
 C         -44.394680     -126.835693      -40.673641
 C         -45.509945     -124.977852      -41.817940
 C         -44.331329     -125.354469      -40.925892
 H         -45.675007     -128.531357      -40.123188
 H         -45.784695     -127.112328      -39.131393
 H         -47.520332     -125.304489      -42.291328
 H         -47.079208     -124.780045      -40.444118
 H         -44.297375     -127.445152      -41.599762
 H         -43.504833     -127.021622      -40.037457
 H         -45.344723     -123.912148      -41.925098
 H         -45.154686     -125.439850      -42.793793
 H         -43.358616     -125.174561      -41.281891
 H         -44.381531     -124.796280      -39.986660
