20
 generated by VMD
 C         -43.387154     -121.136154      -36.042152
 N         -43.555695     -120.538170      -35.032990
 H         -44.807465     -122.330399      -39.107765
 H         -43.329811     -121.845451      -36.852699
 C         -44.743118     -121.214844      -39.458927
 C         -43.343407     -120.692917      -39.688110
 C         -45.859047     -120.417686      -38.856220
 C         -43.373756     -119.324432      -40.276226
 C         -45.854771     -118.991730      -39.330173
 C         -44.370594     -118.366127      -39.435341
 H         -43.003773     -121.381050      -40.458508
 H         -42.794788     -120.666992      -38.793751
 H         -46.843140     -120.932671      -39.117435
 H         -45.753227     -120.505165      -37.801086
 H         -43.697575     -119.177513      -41.365612
 H         -42.287567     -118.955849      -40.144638
 H         -46.634922     -118.429207      -38.640095
 H         -46.208988     -118.834366      -40.484936
 H         -44.442986     -117.449821      -40.022293
 H         -44.121120     -118.098206      -38.426067
