20
 generated by VMD
 C         -59.391487     -168.592285      -55.744595
 N         -58.976147     -168.788376      -54.695339
 H         -62.675533     -169.653137      -55.991673
 H         -59.733379     -168.336884      -56.728199
 C         -62.847878     -168.649948      -56.404873
 C         -62.759480     -168.529922      -57.916355
 C         -63.033138     -167.524765      -55.517231
 C         -63.819828     -167.680176      -58.394634
 C         -64.068634     -166.590820      -56.072487
 C         -63.823101     -166.279419      -57.643669
 H         -62.744873     -169.564316      -58.345917
 H         -61.718781     -168.112396      -58.221260
 H         -63.267765     -168.006607      -54.408291
 H         -61.996090     -167.062286      -55.507652
 H         -64.746529     -168.262070      -58.371506
 H         -63.775955     -167.521530      -59.471222
 H         -64.351471     -165.731354      -55.492798
 H         -65.066208     -167.022354      -56.022018
 H         -64.609421     -165.615952      -58.009209
 H         -62.892834     -165.633286      -57.684654
