20
 generated by VMD
 C         -67.777275     -185.849731      -67.104874
 N         -68.669518     -185.545471      -67.762672
 H         -68.694847     -188.503998      -64.443993
 H         -67.020561     -186.178055      -66.377258
 C         -69.321480     -187.924469      -63.748257
 C         -69.006439     -186.546509      -63.106300
 C         -70.659775     -188.450165      -63.705433
 C         -69.425171     -186.521042      -61.697323
 C         -71.199242     -188.325745      -62.263355
 C         -70.866585     -187.052032      -61.508640
 H         -69.463928     -185.669083      -63.602322
 H         -67.903152     -186.376373      -63.189236
 H         -71.309235     -187.732132      -64.289604
 H         -70.731926     -189.486908      -63.999847
 H         -69.341408     -185.517853      -61.178860
 H         -68.773094     -187.157654      -61.124470
 H         -70.901115     -189.256653      -61.606445
 H         -72.325516     -188.315170      -62.483109
 H         -71.380836     -186.201675      -61.780060
 H         -71.006866     -187.392776      -60.460560
