20
 generated by VMD
 C         -23.716492      -69.394196      -16.785759
 N         -24.071768      -69.892578      -15.820597
 H         -23.818485      -66.794434      -18.993092
 H         -23.285688      -68.808334      -17.630739
 C         -24.426409      -67.551414      -19.396257
 C         -23.806862      -68.186996      -20.590706
 C         -25.892447      -67.437439      -19.269785
 C         -24.552721      -69.442314      -20.729174
 C         -26.678709      -68.736816      -19.539328
 C         -26.077957      -69.395836      -20.799252
 H         -22.729870      -68.409752      -20.533348
 H         -24.027342      -67.521080      -21.538567
 H         -26.342102      -67.102417      -18.327415
 H         -26.289989      -66.660805      -20.087404
 H         -24.312414      -70.104500      -19.924952
 H         -24.281393      -69.993767      -21.629354
 H         -27.668087      -68.440323      -19.732611
 H         -26.571760      -69.306458      -18.676170
 H         -26.366074      -70.451645      -20.992241
 H         -26.347118      -68.915855      -21.741867
