20
 generated by VMD
 C         -70.014587     -182.963989      -65.945023
 N         -71.097168     -183.195175      -65.675941
 H         -67.820663     -182.926575      -63.124676
 H         -68.969429     -182.802673      -66.259338
 C         -67.463684     -182.558517      -62.188034
 C         -67.607536     -183.462677      -60.943184
 C         -67.153397     -181.151382      -61.975422
 C         -66.751770     -183.184387      -59.771076
 C         -66.279984     -180.910919      -60.748005
 C         -66.773170     -181.696014      -59.562534
 H         -67.547523     -184.538315      -61.223270
 H         -68.626274     -183.412262      -60.827927
 H         -66.814232     -180.561172      -62.867905
 H         -68.043243     -180.662552      -61.776073
 H         -65.655952     -183.558289      -59.973289
 H         -67.108398     -183.420975      -58.810402
 H         -66.236061     -179.871704      -60.477226
 H         -65.302483     -181.189575      -61.124985
 H         -66.124115     -181.376572      -58.744465
 H         -67.710342     -181.313965      -59.159893
