20
 generated by VMD
 C         -22.148962      -55.085072      -17.371668
 N         -22.520876      -55.283569      -18.407423
 H         -20.974867      -56.458874      -14.176229
 H         -21.716982      -55.290779      -16.433432
 C         -20.632065      -57.427280      -14.086289
 C         -20.952547      -58.251308      -12.868460
 C         -19.922987      -57.895561      -15.266282
 C         -20.912083      -59.631096      -13.166575
 C         -19.857702      -59.393269      -15.391765
 C         -19.674150      -60.022499      -14.053533
 H         -22.000025      -57.998184      -12.617381
 H         -20.237139      -57.975414      -12.018379
 H         -20.558517      -57.470219      -16.088842
 H         -18.997604      -57.438248      -15.354107
 H         -21.807852      -60.015804      -13.608943
 H         -20.913809      -60.142345      -12.217087
 H         -19.028807      -59.751495      -15.990882
 H         -20.754450      -59.791042      -15.844413
 H         -19.717428      -61.109436      -14.129262
 H         -18.720491      -59.713799      -13.553083
