20
 generated by VMD
 C         -13.687481      -42.999542       -6.070781
 N         -12.875790      -43.007027       -6.841234
 H         -14.790525      -44.839874       -8.624321
 H         -14.259241      -43.453060       -9.730257
 C         -15.058290      -44.199619       -9.559750
 C         -16.440525      -43.580120       -9.289118
 C         -15.210667      -45.010105      -10.855900
 C         -16.983915      -42.661674      -10.435314
 C         -15.793602      -44.214531      -12.051000
 C         -17.104237      -43.412857      -11.744993
 H         -16.334389      -43.000263       -8.396561
 H         -17.191847      -44.321831       -9.062492
 H         -14.194152      -45.309265      -11.124917
 H         -15.883754      -45.882339      -10.584446
 H         -16.338213      -41.804668      -10.541461
 H         -17.968475      -42.273136      -10.179438
 H         -15.937682      -44.920753      -12.893037
 H         -15.025126      -43.528961      -12.417350
 H         -17.433979      -42.666588      -12.520390
 H         -17.936443      -44.174938      -11.696806
