20
 generated by VMD
 C          -3.793726      -18.191490        1.957863
 N          -3.133626      -18.390051        2.832362
 H          -5.623661      -20.698410        0.246148
 H          -6.325556      -21.070499       -1.272277
 C          -6.224592      -20.274191       -0.563563
 C          -5.481598      -19.124428       -1.194056
 C          -7.631773      -19.930172       -0.123635
 C          -6.274930      -18.564447       -2.315437
 C          -8.461391      -19.450190       -1.300879
 C          -7.681109      -18.293543       -1.958617
 H          -4.541450      -19.543261       -1.540866
 H          -5.186010      -18.405523       -0.436153
 H          -8.053371      -20.783596        0.449320
 H          -7.630502      -19.108591        0.629631
 H          -6.290308      -19.297438       -3.112202
 H          -5.769961      -17.647831       -2.734924
 H          -9.525906      -19.182983       -1.114460
 H          -8.452096      -20.275898       -2.060228
 H          -8.196485      -17.967382       -2.855376
 H          -7.722937      -17.396675       -1.322199
