20
 generated by VMD
 C         -58.282604     -167.213272      -55.707279
 N         -57.520947     -167.714218      -55.043182
 H         -61.308880     -166.275421      -54.895458
 H         -59.046230     -166.711456      -56.255768
 C         -61.698109     -165.917267      -55.821999
 C         -62.049732     -166.919540      -56.932674
 C         -62.670406     -164.717789      -55.661026
 C         -63.502892     -167.385086      -56.824928
 C         -64.054596     -165.204880      -55.468594
 C         -64.481659     -166.138107      -56.677814
 H         -61.350349     -167.917847      -56.978394
 H         -62.002403     -166.342270      -57.833527
 H         -62.324894     -163.995102      -54.921108
 H         -62.656998     -164.221985      -56.631966
 H         -63.657589     -168.205261      -56.069542
 H         -63.668400     -167.845184      -57.801979
 H         -64.880211     -164.409607      -55.559982
 H         -64.279350     -165.937775      -54.591774
 H         -65.524239     -166.517731      -56.618011
 H         -64.322701     -165.484589      -57.555481
