20
 generated by VMD
 C         -72.491447     -199.299988      -65.230400
 N         -71.403954     -199.406479      -64.821739
 H         -71.457497     -196.157013      -66.896095
 H         -73.579254     -199.309860      -65.436768
 C         -72.294563     -195.793854      -67.491882
 C         -72.875099     -194.468399      -67.129585
 C         -72.801170     -196.447449      -68.685509
 C         -73.967102     -194.033752      -67.966309
 C         -74.244972     -196.305374      -69.027222
 C         -74.926201     -195.154587      -68.244186
 H         -72.003868     -193.847382      -67.010010
 H         -73.305756     -194.435547      -65.997948
 H         -72.176414     -196.072830      -69.464684
 H         -72.579361     -197.468430      -68.697868
 H         -73.606377     -193.612991      -68.939102
 H         -74.471741     -193.212769      -67.506325
 H         -74.815086     -197.210953      -68.821022
 H         -74.367760     -196.120880      -70.126442
 H         -75.965065     -194.994995      -68.591400
 H         -75.245262     -195.552338      -67.177170
