20
 generated by VMD
 C         -27.048380      -72.378326      -17.576668
 N         -27.706596      -73.303589      -17.241570
 H         -24.544682      -69.995544      -18.829807
 H         -26.466106      -71.663063      -17.990925
 C         -24.874155      -70.415565      -19.787735
 C         -24.292181      -71.637138      -20.383211
 C         -25.709778      -69.446518      -20.575211
 C         -25.272648      -72.361107      -21.370180
 C         -26.515947      -70.135391      -21.573111
 C         -25.846811      -71.241524      -22.313631
 H         -24.081564      -72.355072      -19.647373
 H         -23.367416      -71.445854      -20.878691
 H         -26.334047      -68.916031      -19.819357
 H         -25.095188      -68.773048      -21.126621
 H         -26.095610      -72.765793      -20.785074
 H         -24.785170      -73.222374      -21.942282
 H         -26.678551      -69.360046      -22.262115
 H         -27.357964      -70.515976      -21.094131
 H         -26.610395      -71.647530      -22.991776
 H         -25.109350      -70.706421      -23.031324
