20
 generated by VMD
 C         -22.646755      -55.460464      -16.481821
 N         -23.278446      -54.690308      -16.009653
 H         -19.082977      -55.287655      -15.204844
 H         -22.101385      -56.418049      -16.549728
 C         -19.431034      -56.333336      -15.007197
 C         -20.507780      -56.439682      -13.907462
 C         -18.483660      -57.443016      -15.164859
 C         -20.798529      -57.753777      -13.276054
 C         -19.029570      -58.830170      -14.664102
 C         -19.773518      -58.831940      -13.390009
 H         -21.490341      -56.014145      -14.235161
 H         -20.181503      -55.705822      -13.132963
 H         -18.125761      -57.511742      -16.205687
 H         -17.539623      -57.205051      -14.626554
 H         -21.773920      -58.135513      -13.692742
 H         -20.928980      -57.671829      -12.184396
 H         -18.121414      -59.492462      -14.582281
 H         -19.639009      -59.289860      -15.461341
 H         -20.297827      -59.769215      -13.191358
 H         -19.045626      -58.666534      -12.608532
