20
 generated by VMD
 C         -37.978687     -114.130226      -35.381668
 N         -38.538635     -115.114265      -35.173576
 H         -41.446747     -114.373863      -36.514870
 H         -37.598362     -113.069313      -35.400406
 C         -42.357037     -114.981201      -36.714432
 C         -42.804420     -114.976532      -38.162182
 C         -43.487885     -114.815880      -35.742897
 C         -44.080963     -115.862022      -38.429825
 C         -44.747017     -115.682640      -36.103645
 C         -45.249889     -115.400436      -37.531120
 H         -41.946541     -115.342873      -38.734890
 H         -43.069405     -113.947250      -38.312180
 H         -43.073318     -115.098343      -34.745914
 H         -43.756321     -113.781067      -35.516941
 H         -43.784637     -116.922325      -38.281826
 H         -44.243561     -115.680710      -39.498856
 H         -45.484669     -115.606468      -35.324734
 H         -44.661304     -116.772285      -36.102062
 H         -46.232506     -115.989403      -37.716663
 H         -45.421547     -114.356155      -37.514767
