20
 generated by VMD
 C         -69.048103     -187.726151      -67.795601
 N         -67.937378     -187.387161      -67.685707
 H         -68.214867     -187.437119      -64.025032
 H         -70.046165     -188.007111      -67.861588
 C         -69.163307     -187.461029      -63.460693
 C         -69.212547     -188.007111      -62.080048
 C         -70.385406     -186.770157      -63.968472
 C         -70.261162     -189.027695      -62.036777
 C         -71.567703     -187.687927      -63.787739
 C         -71.597069     -188.265503      -62.346966
 H         -69.370766     -187.300552      -61.370647
 H         -68.254532     -188.424194      -61.860863
 H         -70.593086     -185.930862      -63.274319
 H         -70.211441     -186.427383      -65.018639
 H         -70.242622     -189.490204      -61.079990
 H         -70.226791     -189.868912      -62.788254
 H         -71.456421     -188.539459      -64.428459
 H         -72.461716     -187.241135      -64.156540
 H         -71.773163     -187.671326      -61.410870
 H         -72.472282     -189.024963      -62.192146
