20
 generated by VMD
 C         -38.801876     -115.664078      -35.419456
 N         -39.344292     -115.345940      -34.476421
 H         -41.422066     -115.501427      -37.040009
 H         -38.019554     -115.810104      -36.206413
 C         -42.463680     -115.675362      -37.255913
 C         -42.934258     -115.516457      -38.707218
 C         -43.465160     -115.446022      -36.114079
 C         -44.276741     -116.214226      -38.886448
 C         -44.713791     -116.291222      -36.390862
 C         -45.242290     -115.800339      -37.764610
 H         -42.158047     -116.029297      -39.369209
 H         -43.031818     -114.477646      -39.144600
 H         -42.948246     -115.867584      -35.239727
 H         -43.525158     -114.376526      -36.096958
 H         -44.046432     -117.242813      -38.860802
 H         -44.682236     -116.075981      -39.941784
 H         -45.395329     -116.027016      -35.585442
 H         -44.472950     -117.384354      -36.310295
 H         -46.249489     -116.214645      -38.132607
 H         -45.305977     -114.617805      -37.871014
