20
 generated by VMD
 C         -28.456764      -74.103188      -18.444361
 N         -29.236214      -73.386215      -17.935766
 H         -25.450169      -72.072723      -18.763506
 H         -27.755341      -74.734436      -19.089737
 C         -25.351210      -72.025520      -19.813648
 C         -24.874828      -73.225281      -20.595713
 C         -25.675123      -70.756676      -20.542454
 C         -25.169556      -73.257614      -22.150490
 C         -26.340837      -70.988419      -21.895710
 C         -25.565449      -71.914856      -22.744219
 H         -25.273363      -74.127823      -20.311756
 H         -23.809029      -73.246346      -20.524771
 H         -26.320852      -70.009315      -20.040812
 H         -24.757238      -70.251770      -20.726515
 H         -25.945873      -73.993881      -22.165133
 H         -24.293228      -73.737686      -22.581356
 H         -26.544090      -70.069275      -22.424704
 H         -27.440823      -71.305534      -21.716368
 H         -26.116611      -72.129395      -23.668470
 H         -24.625736      -71.468727      -23.026711
