20
 generated by VMD
 C         -74.332047     -200.344925      -66.371620
 N         -73.328415     -200.923157      -66.316986
 H         -76.490883     -198.305496      -68.615715
 H         -75.172592     -199.718582      -66.240356
 C         -75.427254     -198.149216      -68.670433
 C         -74.840683     -197.291260      -67.605110
 C         -74.508148     -199.044647      -69.519379
 C         -73.654556     -196.581192      -68.073845
 C         -73.145370     -198.386658      -69.866722
 C         -72.625114     -197.534470      -68.755295
 H         -74.486183     -197.708267      -66.757553
 H         -75.607407     -196.495667      -67.359695
 H         -74.324097     -200.011078      -68.956139
 H         -74.998512     -199.299423      -70.565071
 H         -73.079720     -196.037552      -67.315514
 H         -74.041824     -195.843704      -68.860733
 H         -73.290619     -197.913910      -70.851486
 H         -72.329994     -199.167938      -70.074806
 H         -72.120560     -198.146118      -68.029083
 H         -71.797066     -196.900620      -69.245140
