20
 generated by VMD
 C         -70.640846     -181.969910      -63.914272
 N         -69.648895     -182.547714      -63.877380
 H         -68.878571     -180.617645      -61.355450
 H         -71.593582     -181.395721      -63.865402
 C         -67.818741     -180.691772      -61.141140
 C         -67.103958     -181.894669      -60.911839
 C         -67.309212     -179.378235      -60.710922
 C         -65.543915     -181.658951      -60.947971
 C         -65.760422     -179.272995      -60.755695
 C         -65.091965     -180.450378      -60.184860
 H         -67.265388     -182.684570      -61.661423
 H         -67.444366     -182.442886      -59.977745
 H         -67.665634     -178.657486      -61.389362
 H         -67.852997     -179.151184      -59.808636
 H         -65.190422     -181.372360      -61.943539
 H         -64.981750     -182.468155      -60.448292
 H         -65.354546     -178.402176      -60.226326
 H         -65.482178     -179.225571      -61.836868
 H         -63.991459     -180.451218      -60.293209
 H         -65.304878     -180.389786      -59.046028
