20
 generated by VMD
 C         -60.222733     -169.735031      -55.324276
 N         -59.461693     -168.822037      -55.199116
 H         -63.522614     -170.582916      -56.853985
 H         -61.028236     -170.466461      -55.518570
 C         -63.311836     -169.484253      -56.929565
 C         -62.705070     -169.009338      -58.167549
 C         -63.680763     -168.519257      -55.838673
 C         -63.370083     -167.702255      -58.741768
 C         -64.312477     -167.237122      -56.422604
 C         -63.457230     -166.727997      -57.547729
 H         -62.781288     -169.724228      -58.880260
 H         -61.509434     -168.990051      -57.964409
 H         -64.351692     -168.915863      -55.183712
 H         -62.888531     -168.181946      -55.285824
 H         -64.375137     -167.902298      -59.181549
 H         -62.660866     -167.480072      -59.556835
 H         -64.418480     -166.557953      -55.602962
 H         -65.242004     -167.425095      -56.715618
 H         -63.783958     -165.795273      -57.948208
 H         -62.420303     -166.664749      -57.148048
