20
 generated by VMD
 C         -10.255510      -24.997530       -0.701437
 N         -11.338382      -24.786118       -0.571623
 H          -6.308090      -25.355070       -1.109984
 H          -8.123218      -25.282171       -1.274073
 C          -7.143156      -25.047504       -1.740635
 C          -6.919333      -25.873854       -3.008453
 C          -6.914639      -23.650108       -1.986853
 C          -7.902524      -25.462849       -4.119570
 C          -7.874797      -23.137779       -3.090776
 C          -7.830319      -23.988766       -4.352913
 H          -6.885572      -26.945496       -2.730719
 H          -5.918031      -25.847166       -3.376601
 H          -7.034348      -23.048853       -1.047815
 H          -5.837394      -23.451830       -2.241135
 H          -8.923011      -25.882250       -4.002622
 H          -7.607163      -25.943233       -5.085634
 H          -7.531545      -22.133499       -3.319658
 H          -8.900654      -23.053106       -2.674940
 H          -8.690022      -23.707651       -4.968552
 H          -6.963075      -23.875629       -5.020377
