20
 generated by VMD
 C         -57.860569     -164.733902      -56.509769
 N         -57.268723     -164.050735      -57.186909
 H         -59.929447     -165.119644      -54.393047
 H         -58.489922     -165.380142      -55.937550
 C         -61.002174     -164.933044      -54.642376
 C         -61.919674     -165.816116      -53.811081
 C         -61.410763     -164.170563      -55.954086
 C         -63.398224     -165.582367      -54.057625
 C         -62.870197     -163.892258      -55.812572
 C         -63.743206     -165.124756      -55.535301
 H         -61.693340     -165.647720      -52.709843
 H         -61.584507     -166.868134      -53.806404
 H         -60.835442     -163.242493      -56.000183
 H         -61.117325     -164.804077      -56.805538
 H         -63.672718     -164.736282      -53.435432
 H         -64.028191     -166.474380      -53.955734
 H         -63.461658     -163.279678      -56.553467
 H         -63.043159     -163.180176      -54.975525
 H         -64.868034     -164.778244      -55.547592
 H         -63.543007     -166.011658      -56.250465
