20
 generated by VMD
 C         -10.496063      -35.539341       -8.174812
 N         -10.179498      -36.188324       -9.002770
 H         -13.428427      -37.151909       -6.843754
 H         -14.458692      -38.111137       -5.755853
 C         -14.076473      -38.088570       -6.732665
 C         -13.127252      -39.244762       -6.920169
 C         -15.045990      -38.039383       -7.954790
 C         -13.872200      -40.528450       -6.923153
 C         -15.761080      -39.381416       -8.123098
 C         -14.873877      -40.569607       -8.033744
 H         -12.390510      -39.351372       -6.132421
 H         -12.665323      -39.106968       -7.882237
 H         -15.726294      -37.189400       -7.744800
 H         -14.350821      -37.762463       -8.785454
 H         -14.403668      -40.589134       -5.903169
 H         -13.123951      -41.328339       -7.062492
 H         -16.284681      -39.381184       -9.111772
 H         -16.550417      -39.497932       -7.370252
 H         -15.543795      -41.454842       -7.914650
 H         -14.348327      -40.671349       -9.010071
