20
 generated by VMD
 C          -3.387851      -19.619047        3.253066
 N          -3.660328      -18.543015        3.122380
 H          -5.543323      -20.496984        0.052214
 H          -6.495797      -21.308556       -1.279319
 C          -6.214197      -20.342703       -0.819382
 C          -5.602127      -19.426985       -1.942219
 C          -7.500870      -19.660925       -0.213513
 C          -6.656945      -19.188980       -3.012866
 C          -8.539443      -19.566416       -1.332434
 C          -8.024836      -18.711206       -2.529991
 H          -4.706669      -19.941914       -2.292922
 H          -5.304379      -18.437359       -1.542758
 H          -7.869872      -20.244429        0.598117
 H          -7.242742      -18.644484        0.036463
 H          -6.722918      -20.142206       -3.540184
 H          -6.306823      -18.420340       -3.634411
 H          -9.404325      -19.037325       -0.974616
 H          -8.870879      -20.534216       -1.699796
 H          -8.789237      -18.875519       -3.308751
 H          -8.053369      -17.660213       -2.264702
