20
 generated by VMD
 C         -12.057222      -41.503262       -7.587694
 N         -11.679296      -40.719913       -6.861730
 H         -13.851494      -40.728897       -8.384400
 H         -15.194113      -40.165535       -9.381889
 C         -14.817530      -41.065964       -8.941783
 C         -15.953085      -41.732410       -8.189062
 C         -14.231956      -42.006107      -10.002663
 C         -17.104650      -42.195801       -9.058723
 C         -15.308990      -42.537426      -10.978176
 C         -16.504265      -43.118027      -10.139584
 H         -16.232246      -41.056095       -7.378261
 H         -15.529732      -42.556927       -7.657559
 H         -13.489051      -41.538864      -10.655875
 H         -13.760180      -42.798748       -9.538899
 H         -17.510185      -41.344627       -9.591632
 H         -17.880877      -42.675438       -8.489927
 H         -14.927067      -43.271317      -11.641409
 H         -15.691420      -41.653263      -11.601076
 H         -17.348030      -43.396904      -10.813443
 H         -16.127863      -44.031612       -9.670277
