20
 generated by VMD
 C         -49.062824     -140.850693      -45.390102
 N         -47.978767     -141.132767      -45.222088
 H         -51.253365     -138.721664      -46.093193
 H         -50.141407     -140.807053      -45.569382
 C         -52.082031     -139.330170      -46.298077
 C         -52.701305     -139.347336      -47.661205
 C         -52.819546     -139.840927      -45.100487
 C         -53.274670     -140.697250      -47.834602
 C         -53.542076     -141.180374      -45.470596
 C         -54.363792     -141.055923      -46.769089
 H         -51.979511     -139.095215      -48.475334
 H         -53.367069     -138.525497      -47.660328
 H         -52.133743     -140.194305      -44.305656
 H         -53.580925     -139.066055      -44.622467
 H         -52.266876     -141.235367      -47.863041
 H         -53.762566     -140.852997      -48.865086
 H         -54.308136     -141.395782      -44.684326
 H         -53.021481     -142.095047      -45.520470
 H         -54.810658     -142.029251      -46.956295
 H         -55.103901     -140.359756      -46.789986
