20
 generated by VMD
 C         -21.396267      -56.109814      -17.481270
 N         -20.740570      -55.281597      -17.919823
 H         -23.100010      -58.641064      -15.594109
 H         -21.911617      -56.722557      -16.899744
 C         -22.407858      -59.333385      -15.176414
 C         -21.778545      -58.987274      -13.843821
 C         -21.736942      -60.063782      -16.212332
 C         -20.881220      -60.081146      -13.244705
 C         -20.364620      -60.554310      -15.674208
 C         -20.524729      -61.122208      -14.295319
 H         -22.622305      -58.813225      -13.170798
 H         -21.132265      -58.045452      -13.841968
 H         -22.290611      -60.956558      -16.518370
 H         -21.451859      -59.360920      -17.012571
 H         -21.449379      -60.568302      -12.492723
 H         -20.009678      -59.721989      -12.689331
 H         -19.601675      -59.755882      -15.674879
 H         -20.074966      -61.376686      -16.326469
 H         -21.318802      -61.868980      -14.245587
 H         -19.673235      -61.717957      -13.858838
