20
 generated by VMD
 C         -28.108828      -72.820862      -18.210274
 N         -28.586775      -73.570160      -17.504520
 H         -25.220058      -71.552795      -18.751080
 H         -27.356226      -72.237816      -18.847492
 C         -25.195536      -71.572830      -19.822557
 C         -24.670187      -72.794357      -20.564264
 C         -25.908672      -70.504333      -20.432392
 C         -24.994606      -72.905807      -22.102997
 C         -26.460327      -70.891670      -21.722624
 C         -25.540037      -71.543961      -22.640255
 H         -24.954687      -73.719368      -20.081348
 H         -23.639002      -72.762642      -20.398739
 H         -26.787716      -70.147743      -19.785908
 H         -25.308462      -69.586082      -20.498116
 H         -25.806183      -73.643135      -22.185043
 H         -24.219217      -73.444038      -22.635132
 H         -26.779959      -69.989716      -22.190823
 H         -27.314991      -71.444534      -21.597597
 H         -26.080444      -71.690132      -23.584068
 H         -24.612770      -70.899773      -22.830582
