20
 generated by VMD
 C          -5.926452      -21.044703        2.055209
 N          -6.108162      -22.075315        1.682490
 H          -4.989459      -18.818308       -1.131464
 H          -5.896842      -19.971733       -0.107735
 C          -5.828052      -19.480555       -1.091351
 C          -5.448079      -20.511587       -2.200985
 C          -7.147994      -18.822474       -1.448948
 C          -6.597542      -21.578678       -2.257534
 C          -8.299501      -19.783751       -1.401138
 C          -8.027921      -20.953978       -2.396441
 H          -4.491648      -21.083143       -1.955145
 H          -5.366593      -19.947536       -3.123477
 H          -7.266605      -18.070333       -0.727313
 H          -7.098627      -18.481356       -2.422116
 H          -6.518040      -22.276875       -1.378309
 H          -6.426343      -22.208954       -3.145192
 H          -9.195658      -19.250046       -1.673926
 H          -8.503722      -20.200064       -0.399752
 H          -8.745834      -21.747652       -2.185882
 H          -8.117353      -20.551004       -3.402407
