20
 generated by VMD
 C         -49.619923     -131.766235      -46.613400
 N         -50.126919     -132.599640      -47.323662
 H         -47.970959     -133.064453      -44.400066
 H         -49.401901     -131.157913      -45.710239
 C         -48.633240     -133.397507      -43.572495
 C         -49.439003     -134.517105      -44.004723
 C         -49.083420     -132.610550      -42.388733
 C         -49.556728     -135.485855      -42.845158
 C         -49.127129     -133.552216      -41.198845
 C         -49.911076     -134.914200      -41.519005
 H         -49.019157     -135.178284      -44.857918
 H         -50.385525     -134.142548      -44.346607
 H         -48.429764     -131.721756      -42.145145
 H         -50.047565     -132.297607      -42.654076
 H         -48.554211     -135.896790      -42.842766
 H         -50.214569     -136.335052      -43.088917
 H         -49.425724     -132.959915      -40.378605
 H         -48.072464     -133.846481      -40.872669
 H         -49.627682     -135.677643      -40.714512
 H         -51.002052     -134.734467      -41.597416
