20
 generated by VMD
 C         -39.783100      -99.336525      -28.468027
 N         -38.976364     -100.010811      -27.973036
 H         -37.241882      -98.802086      -30.179897
 H         -40.290630      -98.641891      -29.028603
 C         -36.379539      -98.281242      -30.717525
 C         -35.802498      -98.614090      -32.121422
 C         -35.459656      -97.857384      -29.592522
 C         -34.582741      -97.703392      -32.375572
 C         -34.328171      -96.952805      -29.999304
 C         -33.633602      -97.712234      -31.106251
 H         -36.465172      -98.379875      -32.984608
 H         -35.432629      -99.591217      -32.257465
 H         -36.098186      -97.433960      -28.814398
 H         -34.972435      -98.694138      -29.148714
 H         -34.911110      -96.688126      -32.511833
 H         -34.013256      -98.074341      -33.262302
 H         -33.818882      -96.631889      -29.112381
 H         -34.804016      -96.080070      -30.460567
 H         -32.748158      -97.187744      -31.408457
 H         -33.416531      -98.789673      -30.730915
