20
 generated by VMD
 C         -59.637909     -152.385818      -51.013004
 N         -60.534981     -153.140045      -50.908802
 H         -56.957920     -151.923676      -48.953991
 H         -58.856907     -151.662796      -51.089375
 C         -56.054569     -151.636765      -49.470783
 C         -55.007008     -152.664734      -49.703644
 C         -55.732262     -150.156387      -49.520184
 C         -54.142387     -152.121872      -50.886314
 C         -55.113853     -149.758514      -50.805717
 C         -53.766930     -150.576813      -51.049061
 H         -55.598106     -153.446030      -50.112595
 H         -54.449791     -152.973953      -48.832493
 H         -56.552357     -149.562302      -49.105122
 H         -54.946476     -150.047607      -48.693367
 H         -54.651672     -152.449463      -51.792347
 H         -53.172333     -152.614426      -50.810333
 H         -54.880352     -148.652969      -50.688347
 H         -55.816120     -149.731979      -51.637142
 H         -53.403347     -150.193008      -52.060932
 H         -53.220791     -150.282318      -50.192204
