20
 generated by VMD
 C         -48.531456     -140.753479      -45.414402
 N         -47.361271     -140.571594      -45.441620
 H         -51.170639     -138.754944      -45.851395
 H         -49.597355     -140.634277      -45.444424
 C         -52.038158     -139.347946      -46.086140
 C         -52.497093     -139.357803      -47.435921
 C         -53.106289     -139.517593      -44.995850
 C         -53.396999     -140.568069      -47.760162
 C         -53.807629     -140.890228      -45.304558
 C         -54.413303     -140.826981      -46.694901
 H         -51.614929     -139.363480      -48.111977
 H         -52.992619     -138.422989      -47.444679
 H         -52.741650     -139.640289      -43.990425
 H         -53.691742     -138.618179      -44.891613
 H         -52.668098     -141.427307      -47.964836
 H         -53.969410     -140.427841      -48.758308
 H         -54.651165     -140.958206      -44.538795
 H         -53.110359     -141.691589      -45.225536
 H         -54.869213     -141.855133      -46.839016
 H         -55.317997     -140.099228      -46.644104
