20
 generated by VMD
 C         -69.059425     -193.052170      -66.523651
 N         -67.964691     -193.468491      -66.700195
 H         -69.901558     -190.182022      -65.594048
 H         -69.915764     -192.665695      -66.066887
 C         -70.900337     -190.596558      -65.343994
 C         -71.778381     -190.777374      -66.530800
 C         -71.521080     -190.870056      -64.014336
 C         -72.779259     -191.847031      -66.355919
 C         -73.019279     -190.839462      -64.052490
 C         -73.663277     -191.719650      -65.086311
 H         -71.229141     -190.997910      -67.409119
 H         -72.241737     -189.789291      -66.838684
 H         -71.209473     -191.834351      -63.636280
 H         -71.081940     -190.261978      -63.219166
 H         -72.234901     -192.768463      -66.240013
 H         -73.496727     -191.822891      -67.163597
 H         -73.189224     -189.787369      -64.208282
 H         -73.432098     -191.007095      -63.078621
 H         -73.929451     -192.734161      -64.548508
 H         -74.716431     -191.280884      -65.384056
