20
 generated by VMD
 C         -30.489061      -93.942451      -25.431873
 N         -29.462883      -93.663742      -25.015009
 H         -33.750332      -92.609940      -26.762594
 H         -31.489458      -94.078682      -25.757689
 C         -34.243835      -91.996101      -27.548738
 C         -35.716492      -92.167450      -27.792484
 C         -33.402855      -91.384598      -28.652252
 C         -36.391296      -91.480133      -29.011415
 C         -34.196384      -90.469086      -29.654743
 C         -35.460457      -91.008575      -30.098051
 H         -36.210323      -92.090858      -26.922073
 H         -35.887508      -93.185188      -28.048700
 H         -32.559700      -90.782318      -28.293941
 H         -32.967346      -92.162071      -29.206577
 H         -36.862347      -90.586815      -28.565176
 H         -37.288849      -92.099052      -29.377930
 H         -33.463379      -90.237831      -30.413225
 H         -34.366249      -89.472084      -29.145693
 H         -35.947670      -90.220535      -30.670490
 H         -35.432259      -91.857491      -30.839214
