20
 generated by VMD
 C         -49.948025     -143.369858      -44.546539
 N         -49.209282     -143.468887      -45.460838
 H         -51.888401     -141.060944      -45.539749
 H         -50.764877     -143.264481      -43.792110
 C         -52.645367     -141.256775      -46.319824
 C         -52.121372     -141.560165      -47.654694
 C         -54.152302     -141.097778      -46.139637
 C         -53.158684     -142.176682      -48.714245
 C         -55.012154     -141.897293      -47.120762
 C         -54.547554     -141.694870      -48.609932
 H         -51.256378     -142.198364      -47.628357
 H         -51.709419     -140.661835      -48.128376
 H         -54.429115     -141.374146      -45.117371
 H         -54.366226     -140.077133      -46.135204
 H         -53.169571     -143.378265      -48.452362
 H         -52.665913     -142.103012      -49.743309
 H         -56.074139     -141.591629      -47.256062
 H         -55.040279     -142.963333      -46.705723
 H         -55.288857     -142.237915      -49.296127
 H         -54.576038     -140.544678      -48.795284
