20
 generated by VMD
 C         -80.352180     -205.588181      -72.123962
 N         -79.959442     -206.655579      -72.145401
 H         -77.196678     -204.425949      -71.857964
 H         -80.510750     -204.517395      -72.310310
 C         -76.337921     -204.762955      -71.272644
 C         -75.078545     -203.942123      -71.230492
 C         -76.211174     -206.112915      -70.601662
 C         -74.523384     -203.786346      -69.790680
 C         -75.594337     -206.047379      -69.253174
 C         -74.328056     -205.195236      -69.328026
 H         -75.405746     -202.950699      -71.585258
 H         -74.362373     -204.326370      -72.002190
 H         -77.266304     -206.413757      -70.440582
 H         -75.734268     -206.833740      -71.268990
 H         -75.351418     -203.256729      -69.290077
 H         -73.646996     -203.163834      -69.957054
 H         -75.383194     -207.020264      -68.931625
 H         -76.256561     -205.693710      -68.466408
 H         -73.778450     -205.141037      -68.417526
 H         -73.723915     -205.842484      -70.044174
