20
 generated by VMD
 C         -47.322910     -137.441376      -46.165508
 N         -47.155315     -136.735855      -47.136829
 H         -50.366562     -136.505676      -44.745819
 H         -47.356983     -137.881805      -45.155048
 C         -51.196865     -137.218323      -44.774414
 C         -51.405682     -137.898178      -46.033047
 C         -52.379326     -136.875916      -43.819019
 C         -52.088196     -139.305649      -45.747402
 C         -53.125637     -138.306610      -43.620758
 C         -53.429394     -139.106537      -44.880116
 H         -50.460354     -138.190033      -46.391960
 H         -51.995831     -137.271896      -46.772713
 H         -52.091816     -136.530609      -42.809509
 H         -53.212700     -136.269852      -44.301277
 H         -51.483788     -139.954544      -45.137745
 H         -52.211063     -139.758087      -46.699749
 H         -54.010780     -138.145874      -43.169098
 H         -52.484421     -138.851944      -42.901379
 H         -53.730412     -140.029388      -44.567322
 H         -54.132759     -138.568176      -45.417755
