20
 generated by VMD
 C         -38.015175     -109.775040      -36.375233
 N         -37.421783     -108.868958      -35.935482
 H         -40.354515     -112.710205      -36.572845
 H         -38.404835     -110.644608      -36.930862
 C         -41.365192     -112.666031      -36.151741
 C         -42.346111     -113.622047      -36.544540
 C         -41.708748     -111.506607      -35.285439
 C         -43.087589     -114.051437      -35.249962
 C         -42.318459     -112.013039      -33.981613
 C         -43.485561     -112.924736      -34.289787
 H         -41.812870     -114.532784      -36.972599
 H         -43.124264     -113.283310      -37.223660
 H         -40.662430     -111.179848      -35.057564
 H         -42.145489     -110.772751      -36.009808
 H         -42.553440     -114.849777      -34.748249
 H         -44.053234     -114.667419      -35.572906
 H         -42.530361     -111.123024      -33.366077
 H         -41.707939     -112.733284      -33.426861
 H         -43.851044     -113.423485      -33.394550
 H         -44.380451     -112.444611      -34.809010
