20
 generated by VMD
 C         -11.805603      -31.774302       -9.015845
 N         -12.491473      -32.362541       -9.644687
 H         -10.987922      -34.129833       -6.702523
 H         -11.951467      -34.061085       -5.161451
 C         -11.596052      -34.709343       -5.995762
 C         -10.701232      -35.738037       -5.262932
 C         -12.835519      -35.200371       -6.663152
 C         -11.536530      -36.691666       -4.387057
 C         -13.603021      -36.068245       -5.649034
 C         -12.734744      -37.253025       -5.120477
 H          -9.894441      -35.160202       -4.721080
 H         -10.248650      -36.381622       -6.023091
 H         -13.517622      -34.446320       -7.048376
 H         -12.586448      -35.919548       -7.443753
 H         -11.897510      -36.043873       -3.574175
 H         -10.893190      -37.533684       -4.026987
 H         -14.519012      -36.435402       -6.124763
 H         -13.867420      -35.473461       -4.717359
 H         -13.353923      -37.840206       -4.410770
 H         -12.447834      -37.939602       -5.864928
