20
 generated by VMD
 C         -12.610960      -27.376642       -4.721909
 N         -13.464177      -28.078022       -4.677724
 H         -10.659337      -29.979164       -2.635903
 H         -10.701254      -28.458368       -3.423301
 C         -10.044311      -29.326433       -3.194301
 C          -9.481568      -30.132624       -4.396976
 C          -8.878803      -28.766867       -2.394017
 C          -8.579801      -29.172472       -5.240619
 C          -8.026067      -27.851387       -3.187283
 C          -7.477522      -28.574282       -4.443464
 H         -10.223691      -30.716890       -4.898543
 H          -8.766623      -31.001812       -4.090459
 H          -9.316728      -28.243265       -1.545839
 H          -8.275313      -29.588669       -2.016826
 H          -9.295193      -28.403786       -5.607773
 H          -8.199805      -29.594534       -6.178026
 H          -7.301755      -27.352669       -2.560837
 H          -8.646187      -26.973797       -3.601738
 H          -6.837597      -27.862654       -4.980371
 H          -6.875674      -29.373817       -4.048387
