20
 generated by VMD
 C         -40.131329     -104.801949      -36.295795
 N         -39.446419     -104.291046      -37.077820
 H         -40.228462     -108.240326      -35.253227
 H         -40.573658     -105.212395      -35.371017
 C         -39.799427     -108.442764      -34.285378
 C         -38.827908     -107.430008      -33.766331
 C         -40.223026     -109.617966      -33.502323
 C         -38.956509     -107.225945      -32.233326
 C         -40.081261     -109.523666      -31.913851
 C         -39.075531     -108.533371      -31.496508
 H         -38.936451     -106.485176      -34.370621
 H         -37.772556     -107.658600      -34.076477
 H         -41.250595     -109.684128      -33.788776
 H         -39.658321     -110.466629      -33.885674
 H         -39.879589     -106.709572      -32.072662
 H         -38.133953     -106.725052      -31.787355
 H         -39.940708     -110.419380      -31.361595
 H         -40.993229     -108.989563      -31.533689
 H         -39.241329     -108.257614      -30.438684
 H         -38.093941     -108.940071      -31.600065
