20
 generated by VMD
 C         -37.306126      -98.469704      -27.475595
 N         -37.721489      -98.319138      -26.416922
 H         -36.691174      -96.052063      -29.438854
 H         -36.707912      -98.588844      -28.445732
 C         -35.685822      -96.521645      -29.578650
 C         -35.339458      -97.281128      -30.814734
 C         -34.639946      -95.650955      -29.061890
 C         -34.936703      -96.345741      -31.967443
 C         -34.050018      -94.743347      -30.064312
 C         -33.965691      -95.253731      -31.568316
 H         -36.260754      -97.825294      -31.007076
 H         -34.489597      -97.994728      -30.556639
 H         -34.805935      -94.991066      -28.208658
 H         -33.925274      -96.375504      -28.721394
 H         -35.824284      -96.070557      -32.501499
 H         -34.453014      -97.000351      -32.698620
 H         -33.043434      -94.364960      -29.659925
 H         -34.738220      -93.928299      -30.117506
 H         -34.031963      -94.551620      -32.261276
 H         -32.930614      -95.688553      -31.889174
