20
 generated by VMD
 C         -38.689217      -99.091331      -27.072357
 N         -37.710636      -99.072685      -26.433599
 H         -36.857853      -97.455772      -29.857985
 H         -39.531612      -99.220665      -27.743626
 C         -36.104908      -96.951920      -30.450191
 C         -35.406437      -97.565514      -31.654690
 C         -35.293854      -95.936119      -29.486261
 C         -34.512707      -96.516685      -32.210678
 C         -34.064682      -95.365662      -30.074327
 C         -33.446129      -96.190712      -31.228300
 H         -36.085823      -97.786720      -32.498047
 H         -34.854324      -98.402626      -31.334679
 H         -36.050713      -95.353828      -28.963226
 H         -34.910526      -96.482491      -28.625013
 H         -34.971115      -95.574074      -32.589012
 H         -33.969322      -96.854225      -33.074631
 H         -33.301723      -95.090096      -29.365797
 H         -34.325863      -94.375687      -30.461039
 H         -32.585838      -95.683273      -31.565966
 H         -32.949688      -97.186646      -30.901789
