20
 generated by VMD
 C         -50.162006     -129.281265      -42.992931
 N         -50.618259     -128.363998      -43.594265
 H         -48.660923     -128.098557      -39.834141
 H         -49.489887     -130.079727      -42.676250
 C         -47.674343     -127.982445      -40.295956
 C         -46.592831     -128.907120      -39.961926
 C         -47.316719     -126.792458      -40.994919
 C         -45.558899     -129.069183      -41.088440
 C         -46.284779     -126.949745      -42.117134
 C         -44.966927     -127.710411      -41.621620
 H         -46.972809     -129.938507      -39.630299
 H         -46.142853     -128.520981      -39.053371
 H         -48.273376     -126.522690      -41.634811
 H         -47.069672     -126.069763      -40.292652
 H         -46.048115     -129.489548      -41.909634
 H         -44.820847     -129.793854      -40.869190
 H         -45.997528     -126.048477      -42.625210
 H         -46.720905     -127.622635      -42.907913
 H         -44.293797     -127.966614      -42.408352
 H         -44.455902     -127.231346      -40.797195
