20
 generated by VMD
 C         -50.509434     -131.870804      -47.180473
 N         -49.964520     -132.347870      -48.016613
 H         -48.684418     -131.464218      -43.713375
 H         -50.928211     -131.775040      -46.207611
 C         -48.722157     -132.275787      -43.007721
 C         -49.374916     -133.481018      -43.601318
 C         -48.530560     -132.234009      -41.527477
 C         -49.227356     -134.773590      -42.826057
 C         -48.490864     -133.530212      -40.724258
 C         -49.331882     -134.660416      -41.293335
 H         -49.097641     -133.730072      -44.644260
 H         -50.402428     -133.369324      -43.573822
 H         -47.690987     -131.555496      -41.269085
 H         -49.389427     -131.667191      -41.084869
 H         -48.233837     -135.197662      -43.043224
 H         -49.986549     -135.532654      -43.018841
 H         -48.442928     -133.383469      -39.597717
 H         -47.478439     -133.867966      -40.884705
 H         -49.012272     -135.518539      -40.835533
 H         -50.339451     -134.385101      -40.915047
