20
 generated by VMD
 C         -47.900768     -139.736404      -46.086498
 N         -46.830395     -139.470932      -45.891083
 H         -50.851639     -138.801102      -45.022507
 H         -48.838505     -140.192169      -46.246510
 C         -51.842140     -139.135223      -45.312366
 C         -51.961582     -139.404297      -46.781395
 C         -53.113449     -138.960327      -44.643566
 C         -53.051205     -140.441315      -47.169102
 C         -54.287197     -140.044632      -45.028442
 C         -54.469154     -140.180893      -46.512676
 H         -51.025684     -139.736649      -47.160118
 H         -52.273479     -138.486465      -47.276943
 H         -53.023804     -138.792664      -43.534290
 H         -53.562378     -137.938370      -44.986576
 H         -52.687801     -141.388733      -46.881458
 H         -53.145657     -140.399109      -48.244167
 H         -55.123196     -139.564255      -44.379559
 H         -53.994186     -141.023178      -44.650536
 H         -55.313763     -140.785126      -46.844414
 H         -54.803806     -139.223251      -46.950775
