20
 generated by VMD
 C         -40.871185     -102.219475      -34.997997
 N         -41.599934     -102.063423      -35.911560
 H         -39.743683     -104.405754      -31.859743
 H         -40.404846     -102.401390      -34.034706
 C         -38.762676     -104.689682      -31.856342
 C         -37.858532     -104.094131      -32.843594
 C         -38.298828     -105.812851      -31.081625
 C         -36.553780     -103.729103      -32.081264
 C         -36.870361     -105.595757      -30.341343
 C         -35.861111     -104.937790      -31.294416
 H         -38.303734     -103.227921      -33.433369
 H         -37.444279     -104.812744      -33.581062
 H         -39.040474     -105.877083      -30.285397
 H         -38.240238     -106.774872      -31.624601
 H         -36.782703     -102.932053      -31.341064
 H         -35.929787     -103.246475      -32.877937
 H         -36.458637     -106.615059      -29.959557
 H         -37.112114     -105.072792      -29.486130
 H         -34.979465     -104.506317      -30.639551
 H         -35.552677     -105.730324      -31.957205
