20
 generated by VMD
 C         -49.703716     -127.369194      -39.928589
 N         -49.043652     -126.700638      -39.226379
 H         -47.027534     -126.783463      -41.712868
 H         -50.452793     -127.901192      -40.498173
 C         -46.392021     -126.000374      -41.470829
 C         -45.251522     -126.457108      -40.432503
 C         -46.802170     -124.576042      -41.299770
 C         -44.096672     -125.528908      -40.510742
 C         -45.595543     -123.678673      -41.334427
 C         -44.324600     -123.995850      -40.525951
 H         -44.971718     -127.459457      -40.634617
 H         -45.649361     -126.556221      -39.408527
 H         -47.604759     -124.385643      -42.029942
 H         -47.368744     -124.413643      -40.294090
 H         -43.599133     -125.605820      -41.490044
 H         -43.297321     -125.725319      -39.768478
 H         -45.900517     -122.594154      -41.313999
 H         -45.295761     -123.863495      -42.449581
 H         -43.469513     -123.484322      -40.964493
 H         -44.418472     -123.681946      -39.490875
