20
 generated by VMD
 C         -68.737686     -186.440567      -67.832176
 N         -68.155258     -187.373383      -67.516785
 H         -68.212517     -187.114578      -64.325447
 H         -69.300362     -185.509338      -68.128494
 C         -69.030052     -187.549713      -63.698257
 C         -68.918686     -187.435577      -62.169262
 C         -70.486816     -187.398361      -64.299034
 C         -70.012482     -188.259567      -61.486343
 C         -71.648079     -187.968201      -63.417915
 C         -71.387680     -187.915741      -61.952065
 H         -68.971046     -186.370605      -62.076317
 H         -67.998650     -187.917557      -61.869129
 H         -70.712135     -186.280884      -64.374512
 H         -70.610840     -187.935089      -65.282234
 H         -69.880592     -188.112534      -60.359966
 H         -69.954994     -189.329544      -61.614956
 H         -71.711906     -188.990097      -63.758018
 H         -72.529213     -187.346558      -63.612370
 H         -71.463104     -186.858307      -61.637260
 H         -72.151436     -188.576477      -61.308346
