20
 generated by VMD
 C         -19.891325      -50.194920      -10.037154
 N         -20.059784      -51.240459       -9.533776
 H         -17.011091      -48.528053       -9.987657
 H         -19.953138      -49.376442      -10.696729
 C         -16.976143      -48.886761      -11.071468
 C         -15.908842      -49.813919      -11.625772
 C         -17.683311      -47.928486      -11.963755
 C         -16.261908      -50.229088      -13.048666
 C         -17.813890      -48.362682      -13.413036
 C         -16.473600      -48.997192      -13.940286
 H         -15.763585      -50.644356      -10.972669
 H         -14.931559      -49.306683      -11.653781
 H         -18.627871      -47.603050      -11.548831
 H         -17.126810      -47.009438      -11.944521
 H         -17.132217      -50.880604      -13.101114
 H         -15.432618      -50.826511      -13.466685
 H         -18.095135      -47.478336      -14.072559
 H         -18.611034      -49.116341      -13.461873
 H         -16.765966      -49.319008      -14.930622
 H         -15.614261      -48.332455      -13.914511
