20
 generated by VMD
 C         -41.244129     -102.372414      -35.316891
 N         -41.557957     -103.298676      -35.948219
 H         -39.329407     -104.773613      -33.515881
 H         -41.156540     -101.503487      -34.746403
 C         -38.602169     -105.079369      -32.831692
 C         -37.299583     -104.367691      -32.870537
 C         -38.939919     -106.225113      -31.821548
 C         -36.471100     -104.512604      -31.610729
 C         -37.894806     -106.346275      -30.710600
 C         -36.467178     -105.940331      -31.195456
 H         -37.479393     -103.302094      -33.029949
 H         -36.886017     -104.782234      -33.723530
 H         -39.906235     -106.007141      -31.437849
 H         -39.069408     -107.120049      -32.422516
 H         -36.984913     -104.036446      -30.821817
 H         -35.520241     -104.108620      -31.866852
 H         -37.957321     -107.418297      -30.299850
 H         -38.123264     -105.770103      -29.867300
 H         -35.745789     -106.242355      -30.356279
 H         -36.186329     -106.554932      -32.008545
