20
 generated by VMD
 C         -38.459015      -99.031326      -27.177801
 N         -37.659950      -98.877533      -26.369221
 H         -36.895447      -97.274254      -29.819527
 H         -39.348286      -99.165634      -27.873569
 C         -36.024345      -96.746475      -30.258604
 C         -35.465031      -97.482079      -31.436556
 C         -35.158333      -95.951103      -29.368551
 C         -34.526318      -96.549232      -32.219364
 C         -34.078785      -95.165062      -30.024710
 C         -33.417698      -95.878090      -31.382559
 H         -36.243526      -97.929413      -32.040939
 H         -34.971378      -98.433128      -31.058619
 H         -35.813011      -95.245811      -28.874521
 H         -34.613789      -96.549667      -28.610540
 H         -35.118732      -95.718361      -32.533424
 H         -34.269535      -97.207138      -33.096470
 H         -33.220364      -94.927986      -29.348572
 H         -34.525558      -94.256279      -30.303917
 H         -32.983654      -95.224709      -32.043251
 H         -32.702145      -96.668533      -30.932987
