20
 generated by VMD
 C          -9.293635      -24.474144        1.231587
 N          -9.701403      -25.333385        1.822200
 H          -7.107811      -23.230524       -0.695199
 H          -8.410856      -22.597429       -1.487025
 C          -7.429545      -22.974697       -1.674270
 C          -7.495460      -24.299742       -2.528327
 C          -6.625661      -21.929560       -2.356059
 C          -7.924704      -24.049477       -4.011240
 C          -7.070282      -21.753178       -3.797012
 C          -7.035275      -23.018555       -4.587499
 H          -8.125317      -25.030540       -1.940027
 H          -6.455927      -24.754986       -2.555801
 H          -6.717363      -20.916443       -1.902711
 H          -5.590692      -22.239405       -2.420874
 H          -8.922310      -23.636707       -3.992220
 H          -7.959712      -24.938608       -4.558891
 H          -6.484771      -20.995811       -4.330498
 H          -8.082413      -21.408464       -3.694308
 H          -7.382546      -22.873363       -5.657204
 H          -6.006921      -23.356253       -4.504876
