20
 generated by VMD
 C         -38.217621     -109.671227      -36.489155
 N         -37.536449     -108.981575      -35.859367
 H         -40.799297     -111.648438      -37.041401
 H         -38.870140     -110.319786      -36.996178
 C         -41.375072     -111.997559      -36.200768
 C         -42.186729     -113.282997      -36.393219
 C         -41.861980     -110.965752      -35.174271
 C         -42.523773     -113.866241      -35.041489
 C         -42.134041     -111.649246      -33.845024
 C         -43.037769     -112.856468      -34.028450
 H         -41.562088     -113.920776      -37.046497
 H         -43.072605     -113.050278      -36.965084
 H         -41.279388     -110.117767      -34.841129
 H         -42.801479     -110.464615      -35.504105
 H         -41.678448     -114.340019      -34.686398
 H         -43.162498     -114.817009      -35.084869
 H         -42.608822     -110.904243      -33.244377
 H         -41.297588     -111.969170      -33.309788
 H         -42.987141     -113.274200      -33.039772
 H         -44.163601     -112.596977      -34.305943
