20
 generated by VMD
 C         -79.255577     -204.534058      -70.770187
 N         -80.260902     -205.113083      -70.678017
 H         -76.598106     -202.655243      -68.464012
 H         -78.339668     -204.080765      -70.628220
 C         -75.867569     -202.955200      -69.129227
 C         -75.603638     -202.209641      -70.386665
 C         -74.786049     -203.982513      -68.843887
 C         -74.312393     -201.460632      -70.240997
 C         -73.321831     -203.513977      -69.233253
 C         -73.133156     -202.581055      -70.420189
 H         -76.454971     -201.553360      -70.733826
 H         -75.449501     -202.994415      -71.123566
 H         -74.707390     -204.014923      -67.763771
 H         -75.054810     -204.853912      -69.506561
 H         -74.300529     -200.952591      -69.240639
 H         -74.136520     -200.733810      -71.035355
 H         -72.760986     -204.386414      -69.527939
 H         -72.824982     -202.946365      -68.327736
 H         -72.168571     -202.022705      -70.372589
 H         -73.305038     -203.272644      -71.287727
