20
 generated by VMD
 C         -38.734863     -113.684410      -35.701427
 N         -37.842430     -114.447334      -35.811424
 H         -41.343201     -114.778923      -35.668346
 H         -39.482815     -112.965294      -35.811443
 C         -42.267212     -114.413605      -36.175369
 C         -42.396431     -114.610573      -37.690239
 C         -43.545769     -114.243484      -35.317398
 C         -43.647499     -115.403252      -38.111244
 C         -44.489075     -115.331497      -35.772720
 C         -44.912395     -115.035011      -37.228607
 H         -41.633659     -115.217827      -38.211887
 H         -42.428467     -113.711517      -38.300587
 H         -43.209572     -114.153816      -34.251640
 H         -43.895618     -113.202431      -35.484631
 H         -43.392483     -116.461906      -38.068119
 H         -43.957767     -115.146194      -39.130180
 H         -45.480541     -115.359138      -35.231182
 H         -44.067440     -116.281357      -35.411175
 H         -45.740593     -115.736992      -37.457439
 H         -45.212971     -114.088081      -37.402187
