20
 generated by VMD
 C         -58.361431     -165.518631      -56.194530
 N         -57.349800     -165.621796      -56.815315
 H         -60.574741     -164.605545      -54.055664
 H         -59.264091     -165.323914      -55.645149
 C         -61.314629     -164.998016      -54.750748
 C         -61.749283     -166.387589      -54.849297
 C         -61.872738     -163.919861      -55.686211
 C         -63.260574     -166.552063      -54.882469
 C         -63.411144     -164.137039      -55.800781
 C         -63.832577     -165.637039      -56.059811
 H         -61.252243     -167.010544      -54.201191
 H         -61.421131     -166.718643      -55.865997
 H         -61.531429     -162.937866      -55.276638
 H         -61.391705     -164.077789      -56.587849
 H         -63.687439     -166.277695      -53.957008
 H         -63.667664     -167.470688      -55.117393
 H         -63.625492     -163.415405      -56.673557
 H         -63.908474     -163.482742      -54.978436
 H         -64.917908     -165.549515      -56.030666
 H         -63.445721     -166.040283      -57.056522
