20
 generated by VMD
 C         -47.663036     -125.470146      -39.048473
 N         -47.964199     -126.450539      -38.534801
 H         -45.144875     -122.868088      -37.796825
 H         -47.427647     -124.668617      -39.754627
 C         -45.320961     -123.033440      -38.903992
 C         -44.500996     -124.236954      -39.375854
 C         -45.707928     -121.931625      -39.816505
 C         -44.749168     -124.525116      -40.861351
 C         -45.726952     -122.233246      -41.306808
 C         -44.573120     -123.216187      -41.723701
 H         -44.773186     -125.190063      -38.979424
 H         -43.421741     -124.150887      -39.101456
 H         -46.739624     -121.577522      -39.497986
 H         -45.006321     -121.164925      -39.686840
 H         -45.677685     -125.090225      -41.176426
 H         -43.843037     -125.056236      -41.142609
 H         -45.724213     -121.266586      -41.889645
 H         -46.712231     -122.756294      -41.509056
 H         -44.587780     -123.397675      -42.771030
 H         -43.575996     -122.808952      -41.459057
