20
 generated by VMD
 C         -10.608359      -33.048737       -8.828182
 N         -10.998813      -33.943970       -9.350348
 H         -13.034911      -34.093349       -6.458465
 H         -13.058353      -34.489567       -4.784943
 C         -12.983731      -34.914543       -5.806983
 C         -11.745003      -35.715034       -6.084661
 C         -14.201443      -35.785015       -6.278516
 C         -11.698580      -37.116741       -5.518948
 C         -14.223989      -37.281872       -5.820245
 C         -12.845453      -37.920708       -6.162505
 H         -10.834982      -35.232800       -5.639990
 H         -11.579275      -35.786846       -7.169439
 H         -15.125948      -35.354439       -5.810225
 H         -14.301971      -35.767612       -7.362215
 H         -11.785962      -36.991005       -4.378896
 H         -10.716035      -37.546310       -5.786817
 H         -15.039861      -37.841026       -6.257334
 H         -14.314322      -37.264118       -4.678092
 H         -12.852297      -38.952297       -5.789713
 H         -12.747788      -37.931702       -7.215872
