20
 generated by VMD
 C         -20.288275      -56.302006      -16.812603
 N         -21.387508      -56.092731      -17.079903
 H         -22.874199      -59.143799      -16.916636
 H         -19.419340      -56.342903      -16.225115
 C         -22.216579      -59.491917      -16.140631
 C         -22.394312      -59.227505      -14.658700
 C         -21.746521      -60.849762      -16.498293
 C         -21.191914      -59.735828      -13.922753
 C         -20.740305      -61.600445      -15.635576
 C         -20.905352      -61.121601      -14.162007
 H         -23.177221      -59.865757      -14.310156
 H         -22.588362      -58.135490      -14.597868
 H         -22.667196      -61.423904      -16.667871
 H         -21.279930      -60.684174      -17.490816
 H         -21.190706      -59.545116      -12.853079
 H         -20.351101      -59.105614      -14.304204
 H         -19.786972      -61.276756      -16.066341
 H         -21.012268      -62.650040      -15.660454
 H         -21.673851      -61.767139      -13.729914
 H         -20.002085      -61.425945      -13.551365
