20
 generated by VMD
 C         -60.186066     -171.115234      -55.299355
 N         -59.334797     -171.835236      -55.071930
 H         -62.968170     -170.307709      -56.502708
 H         -61.012806     -170.484390      -55.492744
 C         -63.408459     -169.433243      -56.873837
 C         -62.389172     -168.588379      -57.492859
 C         -64.785484     -169.066620      -56.658852
 C         -62.989132     -167.925613      -58.733662
 C         -65.388039     -168.401764      -57.857979
 C         -64.403511     -167.368759      -58.530609
 H         -61.459766     -169.282364      -57.859169
 H         -61.979595     -167.843750      -56.864662
 H         -65.277557     -169.968781      -56.559509
 H         -65.010399     -168.378906      -55.898388
 H         -62.980415     -168.736130      -59.471275
 H         -62.298332     -167.078110      -59.035530
 H         -66.379555     -167.914474      -57.586521
 H         -65.552788     -169.221741      -58.578232
 H         -64.866409     -167.045197      -59.445564
 H         -64.343575     -166.462952      -57.841816
