20
 generated by VMD
 C         -76.831734     -203.320633      -66.716995
 N         -77.583038     -203.913452      -66.066895
 H         -75.223930     -200.708527      -68.203529
 H         -76.101105     -202.808899      -67.287376
 C         -74.669174     -200.005524      -68.835716
 C         -74.850296     -198.534409      -68.777809
 C         -73.750145     -200.539810      -69.861816
 C         -73.483315     -197.785034      -68.929108
 C         -73.048843     -199.618225      -70.742355
 C         -72.866714     -198.151245      -70.254860
 H         -75.099045     -198.335693      -67.750763
 H         -75.655022     -198.193619      -69.425911
 H         -73.161003     -201.329330      -69.404091
 H         -74.385231     -201.187958      -70.543716
 H         -72.765495     -197.989655      -68.121048
 H         -73.647362     -196.732635      -68.792824
 H         -73.704002     -199.522629      -71.579063
 H         -72.078369     -199.957642      -70.984245
 H         -71.812035     -197.871506      -70.287079
 H         -73.319801     -197.576431      -71.129242
