20
 generated by VMD
 C         -78.771584     -207.900284      -76.723877
 N         -78.643379     -207.980850      -75.551376
 H         -79.226753     -209.941620      -73.465714
 H         -78.778358     -207.788681      -77.861443
 C         -78.738113     -210.196198      -72.492508
 C         -77.408783     -209.529572      -72.283546
 C         -79.091217     -211.329590      -71.528847
 C         -77.160332     -209.170456      -70.816010
 C         -78.665390     -211.175323      -70.012993
 C         -77.282730     -210.431122      -70.015663
 H         -77.225616     -208.690811      -72.937515
 H         -76.723175     -210.303879      -72.503471
 H         -80.209999     -211.368896      -71.605110
 H         -78.770706     -212.280823      -71.889778
 H         -77.908760     -208.445984      -70.503502
 H         -76.190178     -208.757690      -70.510246
 H         -78.647774     -212.077225      -69.468018
 H         -79.412766     -210.463318      -69.421120
 H         -77.038734     -210.205444      -68.989143
 H         -76.548607     -211.150681      -70.363495
