20
 generated by VMD
 C         -30.715971      -78.298409      -25.110352
 N         -31.327938      -77.351692      -25.041025
 H         -29.057053      -76.987915      -22.336508
 H         -30.088139      -79.019226      -25.426384
 C         -28.755714      -77.960762      -22.556240
 C         -27.501886      -78.230942      -23.300648
 C         -29.500975      -79.058350      -21.982283
 C         -26.551491      -79.018784      -22.476301
 C         -28.533758      -80.066696      -21.307693
 C         -27.082432      -80.326477      -21.943325
 H         -27.031530      -77.290154      -23.660709
 H         -27.690458      -78.752350      -24.289879
 H         -30.150459      -78.760620      -21.232233
 H         -30.098108      -79.667625      -22.664467
 H         -26.260765      -78.363358      -21.601107
 H         -25.686455      -79.190376      -23.165319
 H         -28.986958      -81.103203      -21.181419
 H         -28.248068      -79.706635      -20.292458
 H         -26.362621      -80.873497      -21.224226
 H         -27.257652      -80.927925      -22.868601
