20
 generated by VMD
 C         -22.760944      -52.433872      -12.059134
 N         -23.617630      -52.438965      -11.280189
 H         -19.927290      -53.531590      -14.423415
 H         -22.010361      -52.409733      -12.680867
 C         -18.874523      -53.309925      -14.017843
 C         -18.184826      -52.050964      -14.546421
 C         -18.122429      -54.329075      -13.250746
 C         -16.712238      -52.271770      -14.573703
 C         -17.057182      -53.619751      -12.378966
 C         -16.311304      -52.508690      -13.076323
 H         -18.445267      -51.234043      -13.854767
 H         -18.575228      -51.771748      -15.539091
 H         -18.827120      -54.970947      -12.645960
 H         -17.658585      -55.031731      -13.984236
 H         -16.051966      -51.500019      -14.972529
 H         -16.475740      -53.190746      -15.123758
 H         -16.388401      -54.350651      -12.002256
 H         -17.567566      -53.129807      -11.458850
 H         -16.493551      -51.568291      -12.552349
 H         -15.237456      -52.559746      -12.838419
