20
 generated by VMD
 C         -60.810146     -153.266602      -52.354679
 N         -60.945969     -153.354156      -51.229004
 H         -57.478512     -153.940338      -50.986717
 H         -60.681316     -153.371155      -53.421204
 C         -56.580776     -153.399704      -50.735325
 C         -55.793907     -153.774155      -49.564991
 C         -56.401436     -152.015793      -51.383396
 C         -54.340733     -153.328156      -49.842545
 C         -54.896332     -151.843140      -51.795799
 C         -54.228813     -151.907303      -50.439419
 H         -55.869446     -154.850906      -49.470325
 H         -56.034630     -153.268784      -48.588154
 H         -56.928570     -152.142059      -52.356602
 H         -56.830257     -151.201126      -50.822277
 H         -53.812405     -153.996353      -50.491291
 H         -53.576637     -153.374344      -49.019569
 H         -54.782082     -150.806229      -52.358837
 H         -54.571522     -152.761902      -52.480827
 H         -53.079308     -151.586166      -50.414829
 H         -54.665600     -151.169266      -49.737522
