20
 generated by VMD
 C         -59.388744     -168.775711      -55.859287
 N         -59.217995     -168.711594      -54.669170
 H         -62.520020     -169.764709      -55.983894
 H         -59.575577     -168.659012      -56.929874
 C         -62.919315     -168.878830      -56.468658
 C         -62.761154     -168.617874      -57.846302
 C         -63.169510     -167.751663      -55.585564
 C         -63.695454     -167.630707      -58.472713
 C         -64.037361     -166.577972      -56.111320
 C         -63.832172     -166.335358      -57.603371
 H         -62.815609     -169.675735      -58.449368
 H         -61.828152     -168.196960      -57.954391
 H         -63.452274     -167.988449      -54.474754
 H         -62.126881     -167.282913      -55.501236
 H         -64.705788     -168.021317      -58.535378
 H         -63.318890     -167.486481      -59.498425
 H         -63.783512     -165.743240      -55.559246
 H         -64.992088     -166.972443      -55.978844
 H         -64.668396     -165.676239      -58.027313
 H         -62.852436     -165.834991      -57.841766
