20
 generated by VMD
 C         -66.211929     -177.909119      -56.885460
 N         -67.258842     -177.480301      -57.080349
 H         -64.239578     -175.641510      -58.682499
 H         -65.250992     -178.319580      -56.757336
 C         -64.329102     -174.873154      -59.323891
 C         -65.537163     -174.056198      -59.198868
 C         -63.410160     -174.503067      -60.506790
 C         -65.242699     -172.591202      -59.173420
 C         -62.990547     -172.969986      -60.243950
 C         -64.344238     -172.180344      -60.294121
 H         -66.146873     -174.262817      -58.234985
 H         -66.227341     -174.384415      -59.916111
 H         -62.598328     -175.288254      -60.671646
 H         -64.045174     -174.699554      -61.398151
 H         -64.764763     -172.208481      -58.217796
 H         -66.150185     -171.944092      -59.221199
 H         -62.351162     -172.707550      -61.032452
 H         -62.457527     -172.607925      -59.292660
 H         -64.180954     -171.072281      -60.223343
 H         -64.960236     -172.236328      -61.251808
