20
 generated by VMD
 C         -21.211969      -56.348354      -17.234579
 N         -20.909689      -55.347675      -17.820894
 H         -23.125036      -58.503353      -15.779687
 H         -21.344738      -57.201843      -16.703989
 C         -22.379269      -59.205097      -15.383725
 C         -21.907490      -58.945663      -14.003615
 C         -21.704601      -60.238266      -16.261490
 C         -20.989536      -59.992290      -13.390957
 C         -20.391912      -60.814388      -15.691849
 C         -20.578566      -61.265968      -14.262059
 H         -22.795902      -58.878658      -13.322792
 H         -21.399839      -58.018013      -14.081375
 H         -22.410728      -60.979092      -16.657782
 H         -21.359409      -59.664467      -17.118464
 H         -21.608866      -60.373844      -12.514730
 H         -20.106638      -59.411324      -13.025306
 H         -19.489244      -60.198410      -15.827190
 H         -20.279390      -61.774422      -16.245024
 H         -21.214239      -62.167141      -14.208104
 H         -19.624081      -61.655022      -13.978930
