20
 generated by VMD
 C         -50.533318     -145.060898      -45.094833
 N         -50.560349     -145.629211      -44.126892
 H         -53.338165     -143.720139      -46.000107
 H         -50.475525     -144.583527      -46.053471
 C         -53.522633     -143.358719      -47.014130
 C         -52.575153     -143.305252      -48.167507
 C         -54.705349     -142.488647      -47.016865
 C         -53.311043     -143.424774      -49.442345
 C         -55.526203     -142.480164      -48.351830
 C         -54.480522     -142.374268      -49.571293
 H         -51.696861     -143.907913      -48.045410
 H         -52.094173     -142.364410      -48.297058
 H         -55.337917     -142.911667      -46.206371
 H         -54.283276     -141.393478      -46.862770
 H         -53.844120     -144.318710      -49.425594
 H         -52.544048     -143.396576      -50.223385
 H         -56.367538     -141.794876      -48.404156
 H         -56.119469     -143.445282      -48.442505
 H         -54.947300     -142.415085      -50.538147
 H         -54.051826     -141.341629      -49.615665
