20
 generated by VMD
 C         -49.065907     -126.811348      -38.781460
 N         -49.957348     -127.490532      -38.405663
 H         -46.363270     -124.105858      -38.723568
 H         -48.266872     -126.319641      -39.285530
 C         -45.699696     -123.944313      -39.618481
 C         -44.513885     -124.864296      -39.841705
 C         -45.980209     -122.647903      -40.318256
 C         -43.838013     -124.623337      -41.166653
 C         -45.261223     -122.526932      -41.681301
 C         -43.831882     -123.192764      -41.665222
 H         -44.912708     -125.903061      -39.525761
 H         -43.810379     -124.449326      -39.125706
 H         -47.061195     -122.711533      -40.477512
 H         -45.716919     -121.813301      -39.683556
 H         -44.447990     -125.266388      -41.858898
 H         -42.788589     -124.987122      -41.195679
 H         -45.098152     -121.507454      -41.903072
 H         -45.927483     -123.080597      -42.346569
 H         -43.444767     -123.093033      -42.640106
 H         -43.224899     -122.561874      -41.018822
