20
 generated by VMD
 C          -1.997789      -13.627090        0.784294
 N          -1.693426      -12.981099        1.642860
 H          -3.598697      -17.060516        1.529327
 H          -4.108694      -16.733637       -0.176001
 C          -4.428539      -16.858452        0.851169
 C          -5.156600      -15.538121        1.360412
 C          -5.375432      -18.012161        0.965985
 C          -6.360940      -15.314287        0.476832
 C          -6.624560      -17.829180        0.149811
 C          -7.326527      -16.485266        0.357953
 H          -4.501259      -14.657183        1.325451
 H          -5.345127      -15.605628        2.462069
 H          -4.883167      -18.899939        0.483108
 H          -5.716961      -18.195183        2.008124
 H          -6.052592      -15.062985       -0.568664
 H          -6.999004      -14.446016        0.773144
 H          -7.299612      -18.674038        0.338900
 H          -6.347567      -17.853592       -0.955965
 H          -8.013556      -16.305740       -0.498396
 H          -8.009196      -16.505861        1.212122
