20
 generated by VMD
 C         -11.253013      -34.352283       -8.847215
 N         -10.774501      -35.272388       -8.509701
 H         -12.053817      -37.176422       -7.486863
 H         -13.224817      -37.055477       -6.183094
 C         -12.963104      -37.649197       -7.096977
 C         -12.502319      -39.039349       -6.712396
 C         -14.070115      -37.713943       -8.101065
 C         -13.688514      -39.865452       -6.181137
 C         -15.276893      -38.343513       -7.430288
 C         -14.953342      -39.764545       -7.056252
 H         -11.704240      -38.856876       -5.951722
 H         -12.069621      -39.533859       -7.630117
 H         -14.369726      -36.714245       -8.382162
 H         -13.722880      -38.274776       -9.028344
 H         -13.960229      -39.452293       -5.173192
 H         -13.466634      -40.949108       -6.085046
 H         -16.105963      -38.350060       -8.101838
 H         -15.618882      -37.747627       -6.569299
 H         -15.810171      -40.205956       -6.545273
 H         -14.798741      -40.355824       -7.946980
