20
 generated by VMD
 C         -10.671778      -35.656334       -9.205090
 N         -10.219898      -34.909489       -8.508862
 H         -13.033772      -36.787273       -6.672479
 H         -14.159712      -37.732494       -5.734801
 C         -13.650082      -37.748611       -6.736639
 C         -12.853044      -39.039135       -6.568874
 C         -14.610868      -37.771214       -7.925789
 C         -13.792528      -40.264580       -6.574867
 C         -15.631986      -38.958954       -7.713946
 C         -14.898061      -40.255737       -7.684433
 H         -12.286730      -39.053165       -5.615560
 H         -12.069365      -39.035759       -7.352996
 H         -15.110375      -36.754475       -8.080010
 H         -13.999430      -37.869453       -8.869044
 H         -14.282267      -40.372662       -5.591735
 H         -13.210584      -41.261337       -6.621499
 H         -16.312283      -38.962170       -8.565777
 H         -16.250710      -38.843803       -6.808350
 H         -15.627567      -41.063477       -7.572506
 H         -14.338066      -40.395660       -8.633498
