20
 generated by VMD
 C         -21.469259      -65.701653      -17.127518
 N         -20.904633      -66.106712      -16.220005
 H         -24.344316      -63.726040      -18.312086
 H         -22.093639      -65.201248      -17.893303
 C         -24.633305      -64.751488      -18.358986
 C         -24.485363      -65.245636      -19.782017
 C         -25.209234      -65.565186      -17.242653
 C         -24.281265      -66.695465      -19.968796
 C         -25.109146      -67.095734      -17.454515
 C         -25.068970      -67.579590      -18.913118
 H         -23.538887      -64.803719      -20.238146
 H         -25.352678      -64.731491      -20.387121
 H         -24.701586      -65.366531      -16.326590
 H         -26.223120      -65.323761      -17.249636
 H         -23.276268      -67.008591      -19.868898
 H         -24.522646      -66.911118      -21.008926
 H         -25.978041      -67.572464      -16.978384
 H         -24.222956      -67.471016      -16.896231
 H         -24.606264      -68.563393      -18.967564
 H         -26.137234      -67.739708      -19.304127
