20
 generated by VMD
 C         -61.096832     -154.957489      -53.444939
 N         -61.330452     -154.616455      -52.409927
 H         -57.915703     -154.627579      -52.542595
 H         -60.975044     -155.263977      -54.439224
 C         -57.094688     -154.400436      -51.870041
 C         -57.360725     -154.191071      -50.441910
 C         -55.851391     -153.904984      -52.503609
 C         -56.199303     -154.569885      -49.593304
 C         -54.662598     -154.389648      -51.648605
 C         -54.945446     -153.951233      -50.083279
 H         -58.205719     -154.704361      -49.985817
 H         -57.699463     -153.125793      -50.542416
 H         -55.745602     -154.455292      -53.486324
 H         -55.886246     -152.851425      -52.819042
 H         -56.019093     -155.740173      -49.595024
 H         -56.299042     -154.329666      -48.476788
 H         -53.695499     -154.061279      -52.084190
 H         -54.647820     -155.527863      -51.645618
 H         -54.163040     -154.335526      -49.575108
 H         -54.907387     -152.845993      -49.895439
