20
 generated by VMD
 C         -68.667976     -185.397141      -66.903511
 N         -67.678429     -184.830124      -66.745316
 H         -69.126205     -188.190308      -64.750458
 H         -69.593803     -185.943542      -67.057228
 C         -69.491714     -187.659515      -63.836555
 C         -69.596634     -186.174393      -63.774155
 C         -70.179329     -188.521576      -62.852425
 C         -69.559372     -185.628510      -62.380917
 C         -69.924194     -187.901001      -61.482574
 C         -70.435867     -186.472488      -61.472576
 H         -70.570320     -185.988800      -64.295403
 H         -68.791725     -185.751022      -64.421478
 H         -71.295631     -188.533234      -62.994278
 H         -69.778328     -189.620651      -62.880230
 H         -70.025948     -184.665741      -62.408298
 H         -68.458374     -185.569168      -62.084690
 H         -68.860352     -188.031265      -61.267612
 H         -70.386505     -188.402649      -60.653336
 H         -71.416443     -186.358917      -62.043411
 H         -70.493187     -186.193817      -60.369781
