20
 generated by VMD
 C         -40.445961     -100.182365      -30.277666
 N         -41.436184     -100.553802      -29.775965
 H         -37.122795     -101.324219      -30.765310
 H         -39.497414     -100.073120      -30.664755
 C         -36.394302     -100.570190      -30.886936
 C         -36.162003     -100.129112      -32.149174
 C         -35.436203     -100.384209      -29.813957
 C         -35.319511      -98.869026      -32.447895
 C         -34.460690      -99.231384      -30.179483
 C         -34.098198      -98.949211      -31.599483
 H         -37.066250     -100.022667      -32.739849
 H         -35.635517     -100.933586      -32.620026
 H         -35.969532     -100.188217      -28.901474
 H         -34.801334     -101.236252      -29.629185
 H         -35.924057      -97.973671      -32.062809
 H         -35.110962      -98.819626      -33.503227
 H         -33.550629      -99.380341      -29.659990
 H         -34.862770      -98.294106      -29.618736
 H         -33.335629      -98.121307      -31.477633
 H         -33.415249      -99.704544      -31.942390
