20
 generated by VMD
 C         -79.104721     -205.754288      -73.581215
 N         -79.192856     -206.881027      -73.732162
 H         -78.722137     -206.420975      -70.857536
 H         -79.280991     -204.723297      -73.544029
 C         -77.732285     -206.241577      -70.513306
 C         -76.749542     -205.469757      -71.308083
 C         -77.188240     -207.439865      -69.875290
 C         -75.321297     -205.333847      -70.711197
 C         -75.723152     -207.299026      -69.253677
 C         -74.749130     -206.717300      -70.248405
 H         -77.083855     -204.443954      -71.345741
 H         -76.894348     -205.869064      -72.232002
 H         -77.753975     -207.609955      -68.963898
 H         -77.314415     -208.328598      -70.551674
 H         -75.434723     -204.582092      -69.934288
 H         -74.694527     -204.896576      -71.520126
 H         -75.454597     -208.289825      -68.797813
 H         -75.826363     -206.602631      -68.422852
 H         -73.727943     -206.562927      -69.830788
 H         -74.776634     -207.507629      -71.012543
