20
 generated by VMD
 C         -42.053921     -101.561333      -33.159561
 N         -41.140095     -101.651939      -33.880375
 H         -38.985790     -103.710716      -32.388763
 H         -42.833714     -101.179672      -32.597504
 C         -37.955887     -103.461655      -32.199577
 C         -36.724606     -103.416138      -32.990482
 C         -37.718555     -103.986221      -30.759977
 C         -35.533985     -102.658897      -32.411144
 C         -36.501408     -103.208488      -30.138969
 C         -35.248249     -103.143661      -31.003689
 H         -36.911713     -102.961548      -33.948128
 H         -36.317322     -104.436165      -33.158035
 H         -38.677174     -103.849007      -30.107378
 H         -37.393990     -105.035591      -30.793379
 H         -35.716999     -101.598885      -32.422806
 H         -34.582729     -102.880669      -32.899441
 H         -36.168797     -103.497757      -29.097099
 H         -36.899685     -102.167564      -30.028269
 H         -34.678604     -102.473885      -30.390118
 H         -34.709751     -104.067894      -31.062008
