20
 generated by VMD
 C         -57.938126     -166.384430      -56.289398
 N         -58.291367     -167.132919      -55.484711
 H         -60.826218     -165.631012      -54.586662
 H         -57.586525     -165.717590      -57.096447
 C         -61.629517     -165.590164      -55.305740
 C         -61.712864     -166.815613      -56.175156
 C         -62.442463     -164.378448      -55.552631
 C         -63.220371     -167.175735      -56.181210
 C         -63.885883     -164.845337      -55.549854
 C         -64.171440     -165.987183      -56.574741
 H         -61.145710     -167.649551      -55.813423
 H         -61.398445     -166.789688      -57.308270
 H         -62.257668     -163.600479      -54.721996
 H         -62.098072     -163.972946      -56.494255
 H         -63.449562     -167.564621      -55.165783
 H         -63.411209     -167.977707      -56.969467
 H         -64.594002     -164.012375      -55.644363
 H         -64.157753     -165.281845      -54.407688
 H         -65.170715     -166.315338      -56.380531
 H         -64.090874     -165.764862      -57.610271
