20
 generated by VMD
 C          -2.054441      -14.592707        1.817942
 N          -1.579719      -15.366474        2.474097
 H          -4.002003      -16.383444        0.643675
 H          -4.355788      -17.064703       -0.907133
 C          -4.807868      -16.777185        0.027735
 C          -5.832029      -15.674793       -0.161649
 C          -5.368355      -18.018675        0.789499
 C          -7.153779      -16.233280       -0.734253
 C          -6.689123      -18.458281        0.220168
 C          -7.679075      -17.382307        0.112618
 H          -5.469148      -14.823052       -0.790707
 H          -6.057763      -15.201166        0.777791
 H          -4.685447      -18.868687        0.701382
 H          -5.439165      -17.841118        1.855719
 H          -6.898880      -16.511503       -1.773118
 H          -7.942697      -15.446009       -0.788734
 H          -7.143071      -19.310192        0.761710
 H          -6.508290      -18.812477       -0.837544
 H          -8.614513      -17.815697       -0.225674
 H          -7.866176      -17.030136        1.138878
