20
 generated by VMD
 C         -72.464188     -198.830429      -65.578445
 N         -73.396858     -199.528992      -65.557739
 H         -70.890945     -195.979660      -67.556732
 H         -71.561790     -198.285080      -65.370544
 C         -71.963951     -195.924988      -67.761353
 C         -72.883423     -194.948410      -67.129906
 C         -72.519432     -196.541412      -69.081184
 C         -74.254585     -194.839722      -67.779022
 C         -73.987137     -197.169724      -68.936913
 C         -74.823563     -196.294327      -67.967102
 H         -72.425262     -193.909546      -67.282570
 H         -72.995049     -195.300964      -66.089577
 H         -72.601074     -195.697769      -69.771477
 H         -71.882294     -197.347366      -69.377876
 H         -74.296867     -194.391571      -68.736992
 H         -74.996178     -194.234909      -67.212868
 H         -74.034485     -198.289520      -68.716019
 H         -74.332848     -197.129944      -69.955421
 H         -75.865135     -196.217972      -68.375374
 H         -74.898712     -196.887833      -67.018051
