20
 generated by VMD
 C         -12.768662      -28.290794       -5.798476
 N         -13.071584      -28.620846       -6.818070
 H         -12.128268      -31.347694       -4.925586
 H         -11.057042      -29.973587       -5.069908
 C         -11.116023      -31.011803       -4.720661
 C         -10.087386      -31.845118       -5.516937
 C         -10.831380      -31.048389       -3.225673
 C          -8.601856      -31.450775       -5.232007
 C          -9.403459      -30.518833       -2.944487
 C          -8.284176      -31.293438       -3.686956
 H         -10.285410      -31.709400       -6.584751
 H         -10.093330      -32.989075       -5.330873
 H         -11.596362      -30.425556       -2.713866
 H         -10.912963      -32.068073       -2.840386
 H          -8.364414      -30.442688       -5.688739
 H          -7.944409      -32.222202       -5.700853
 H          -9.179225      -30.650946       -1.851690
 H          -9.308577      -29.463047       -3.112927
 H          -7.336235      -30.698658       -3.588972
 H          -8.102624      -32.270370       -3.283698
