20
 generated by VMD
 C         -78.992981     -208.116837      -76.038857
 N         -78.338875     -207.623444      -75.226318
 H         -79.469704     -210.154984      -73.293304
 H         -79.600792     -208.612289      -76.851089
 C         -78.686050     -210.196548      -72.559540
 C         -77.449890     -209.252151      -72.407860
 C         -78.936485     -211.246094      -71.475800
 C         -77.045013     -208.921036      -70.950363
 C         -78.545959     -210.780807      -70.141151
 C         -77.200180     -210.153015      -70.082039
 H         -77.649292     -208.349182      -72.956642
 H         -76.604713     -209.725677      -72.844376
 H         -79.929466     -211.695526      -71.631416
 H         -78.253067     -212.051529      -71.648659
 H         -77.661087     -208.130798      -70.519829
 H         -76.034798     -208.533554      -70.871185
 H         -78.569878     -211.397629      -69.322258
 H         -79.375244     -209.985657      -69.887497
 H         -76.966698     -209.731918      -69.083015
 H         -76.403671     -210.905594      -70.217445
