20
 generated by VMD
 C         -57.983868     -150.670502      -48.855137
 N         -58.047199     -151.850922      -48.648113
 H         -55.257324     -149.769379      -47.561253
 H         -57.812531     -149.580170      -49.117676
 C         -55.197887     -149.460693      -48.654129
 C         -54.423126     -150.380432      -49.500462
 C         -55.172623     -147.913361      -48.937141
 C         -54.124073     -149.899994      -50.906727
 C         -54.920544     -147.536560      -50.430222
 C         -53.815495     -148.322235      -51.047737
 H         -54.938988     -151.366104      -49.454483
 H         -53.356331     -150.433243      -49.053726
 H         -56.155796     -147.440445      -48.678627
 H         -54.320473     -147.644958      -48.367329
 H         -55.109299     -149.981812      -51.377384
 H         -53.391148     -150.377914      -51.534912
 H         -54.837261     -146.400330      -50.647137
 H         -55.894753     -147.611313      -50.876858
 H         -53.778275     -148.216705      -52.197258
 H         -52.783772     -148.107880      -50.725147
