20
 generated by VMD
 C         -30.560591      -75.429543      -21.154242
 N         -31.711632      -75.257042      -21.015924
 H         -27.898163      -74.671570      -20.187201
 H         -29.763823      -75.656433      -21.727594
 C         -26.889275      -74.839363      -20.463760
 C         -26.623865      -75.996300      -21.296396
 C         -25.907608      -73.693901      -20.382092
 C         -26.069593      -75.536316      -22.717737
 C         -25.353746      -73.339706      -21.802263
 C         -24.847912      -74.566345      -22.589087
 H         -27.462076      -76.582848      -21.406282
 H         -25.930861      -76.713348      -20.794107
 H         -26.475765      -72.754028      -19.865576
 H         -25.030664      -73.950829      -19.740490
 H         -26.867661      -75.104240      -23.325470
 H         -25.799946      -76.460136      -23.230116
 H         -24.562395      -72.507210      -21.847008
 H         -26.258350      -72.730865      -22.220129
 H         -24.515018      -74.334351      -23.613255
 H         -24.044773      -75.059624      -22.015717
