20
 generated by VMD
 C         -72.655739     -199.242584      -65.433365
 N         -71.826782     -199.662888      -64.733810
 H         -71.140266     -195.992279      -67.191147
 H         -73.570107     -199.132904      -66.019424
 C         -72.087807     -195.731110      -67.642357
 C         -72.767036     -194.457672      -67.188362
 C         -72.676208     -196.378265      -68.815109
 C         -74.148178     -194.211380      -67.923607
 C         -74.207657     -196.493576      -68.948387
 C         -74.949478     -195.505753      -68.167389
 H         -71.984711     -193.640274      -67.264763
 H         -72.934143     -194.557861      -66.121422
 H         -72.200760     -195.921371      -69.769043
 H         -72.188950     -197.422089      -68.845764
 H         -74.011131     -193.750198      -68.876961
 H         -74.871796     -193.685196      -67.252953
 H         -74.481010     -197.495773      -68.497238
 H         -74.535477     -196.518860      -69.964737
 H         -75.926590     -195.276093      -68.871590
 H         -75.325638     -195.938873      -67.295357
