20
 generated by VMD
 C         -76.882561     -203.392319      -66.727722
 N         -77.673500     -204.005783      -66.129311
 H         -75.449150     -200.654434      -68.393944
 H         -76.239838     -202.822571      -67.459801
 C         -74.702293     -200.033081      -68.804405
 C         -74.800102     -198.556488      -68.664528
 C         -73.833771     -200.681107      -69.860695
 C         -73.502121     -197.832199      -69.039345
 C         -72.975441     -199.675674      -70.769226
 C         -72.880394     -198.119400      -70.306671
 H         -75.184738     -198.200943      -67.793747
 H         -75.508736     -198.293671      -69.460403
 H         -73.209145     -201.363480      -69.243629
 H         -74.305023     -201.484970      -70.472527
 H         -72.688255     -197.896729      -68.292389
 H         -73.791862     -196.810532      -68.983955
 H         -73.341187     -199.681091      -71.767998
 H         -71.998650     -199.995697      -70.730499
 H         -71.852730     -197.776520      -70.274223
 H         -73.307373     -197.489838      -71.216141
