20
 generated by VMD
 C         -20.350937      -52.238297       -9.753492
 N         -21.102894      -51.591560      -10.322757
 H         -18.361713      -49.354454      -10.739955
 H         -19.328873      -52.957317       -9.462022
 C         -17.760555      -49.475246      -11.644547
 C         -16.897757      -50.729889      -11.865078
 C         -17.294743      -48.185505      -12.235032
 C         -16.925564      -50.986206      -13.363378
 C         -16.819767      -48.395386      -13.681567
 C         -16.220648      -49.758495      -13.980426
 H         -17.387280      -51.582092      -11.383634
 H         -15.874981      -50.715992      -11.489470
 H         -18.199078      -47.503448      -12.285646
 H         -16.528864      -47.727173      -11.577069
 H         -17.915916      -51.206863      -13.812390
 H         -16.370703      -51.936321      -13.611273
 H         -16.111223      -47.608109      -14.059138
 H         -17.733803      -48.157894      -14.344323
 H         -16.238579      -49.845810      -15.061780
 H         -15.196346      -49.697830      -13.676081
