20
 generated by VMD
 C          -2.125517       -8.636761       -0.845938
 N          -1.815969       -8.155755        0.110426
 H          -2.950712       -9.369576        2.949910
 H          -1.916610      -10.704133        3.155361
 C          -2.961616      -10.505075        3.170957
 C          -3.554358      -11.451901        2.168293
 C          -3.518962      -10.709985        4.582912
 C          -3.342288      -12.931205        2.544843
 C          -3.391368      -12.236465        4.972121
 C          -3.951548      -13.233109        3.990668
 H          -3.130484      -11.349225        1.182178
 H          -4.617633      -11.208899        1.999126
 H          -2.873443      -10.164001        5.194139
 H          -4.518384      -10.355192        4.688845
 H          -2.298235      -13.214566        2.623505
 H          -3.804330      -13.640949        1.870677
 H          -3.782681      -12.332597        5.994195
 H          -2.270331      -12.376386        4.986602
 H          -3.651949      -14.228393        4.363593
 H          -5.061310      -13.236131        3.886079
