20
 generated by VMD
 C          -3.490480      -19.461782        2.907413
 N          -3.512674      -18.372341        3.146542
 H          -5.473669      -20.402981        0.081990
 H          -6.373599      -21.353971       -1.039671
 C          -6.225391      -20.312922       -0.692275
 C          -5.596774      -19.403975       -1.796378
 C          -7.549215      -19.795454       -0.203905
 C          -6.587750      -19.034538       -2.927338
 C          -8.501715      -19.527115       -1.361150
 C          -7.944805      -18.594589       -2.383610
 H          -4.686446      -19.792076       -2.302194
 H          -5.293685      -18.461332       -1.326680
 H          -7.959789      -20.372046        0.566713
 H          -7.420091      -18.830856        0.246544
 H          -6.719473      -19.826145       -3.685283
 H          -6.200270      -18.257729       -3.526851
 H          -9.361437      -19.078686       -0.879938
 H          -8.846786      -20.454632       -1.793563
 H          -8.632609      -18.571264       -3.239402
 H          -7.828319      -17.573942       -2.034985
