20
 generated by VMD
 C         -62.690502     -173.727585      -55.491791
 N         -63.570824     -174.160797      -54.912781
 H         -62.130871     -172.122894      -58.224648
 H         -61.868233     -173.213608      -55.948616
 C         -62.926373     -171.373413      -58.333447
 C         -62.730709     -170.052383      -57.706543
 C         -63.977528     -171.918137      -59.289562
 C         -63.720486     -168.940720      -58.308002
 C         -64.736092     -170.704193      -59.947937
 C         -65.012077     -169.679108      -58.843460
 H         -61.698856     -169.616531      -57.890026
 H         -62.905064     -170.083145      -56.707462
 H         -63.673046     -172.457733      -60.250362
 H         -64.758339     -172.618423      -58.810173
 H         -63.281860     -168.502106      -59.157894
 H         -63.897640     -168.246155      -57.573181
 H         -65.716606     -171.059753      -60.366280
 H         -64.145416     -170.171341      -60.801243
 H         -65.698624     -168.947495      -59.210621
 H         -65.538116     -170.210602      -57.975342
