20
 generated by VMD
 C         -49.510780     -132.064209      -46.352757
 N         -50.266209     -132.215332      -47.249905
 H         -47.835541     -133.862518      -44.611259
 H         -48.746567     -132.147568      -45.627048
 C         -48.510281     -134.218689      -43.846924
 C         -49.028687     -135.633484      -43.854759
 C         -49.103630     -133.204193      -42.980675
 C         -49.755192     -136.037994      -42.598633
 C         -49.826538     -133.717270      -41.709518
 C         -50.713791     -134.943268      -42.040577
 H         -48.192802     -136.285980      -44.075085
 H         -49.816101     -135.834122      -44.705830
 H         -48.300060     -132.611359      -42.760620
 H         -49.845325     -132.644363      -43.569218
 H         -49.124893     -136.556580      -41.915699
 H         -50.236450     -136.918716      -42.982807
 H         -50.527878     -133.017975      -41.137508
 H         -49.023968     -134.018585      -41.045757
 H         -51.074501     -135.463608      -41.198589
 H         -51.372208     -134.643600      -42.926075
