20
 generated by VMD
 C         -60.143333     -156.529388      -55.501114
 N         -60.847206     -155.837524      -56.073208
 H         -59.796597     -157.733566      -52.682713
 H         -59.414043     -157.253677      -55.112148
 C         -58.752342     -158.018250      -52.808529
 C         -57.708675     -156.883453      -52.732883
 C         -58.323456     -159.310501      -52.333183
 C         -57.306046     -156.783493      -51.157032
 C         -58.073330     -159.158875      -50.867985
 C         -57.021931     -158.099548      -50.507145
 H         -58.170013     -156.014633      -53.102146
 H         -56.736984     -157.134003      -53.113815
 H         -59.214226     -159.872375      -52.463169
 H         -57.513443     -159.817413      -52.844185
 H         -58.149414     -156.309723      -50.617783
 H         -56.609058     -156.026413      -50.988567
 H         -57.809303     -160.105209      -50.399643
 H         -59.020985     -158.950485      -50.263771
 H         -56.772453     -158.045273      -49.363373
 H         -56.114216     -158.525650      -50.789791
