20
 generated by VMD
 C         -59.605747     -152.376938      -50.991913
 N         -60.521706     -153.148621      -50.886501
 H         -57.092373     -151.892212      -49.069809
 H         -58.734566     -151.697784      -51.166824
 C         -56.101437     -151.604019      -49.448818
 C         -55.024315     -152.629913      -49.736782
 C         -55.723972     -150.171600      -49.484016
 C         -54.130795     -152.142853      -50.900875
 C         -55.091095     -149.695114      -50.805706
 C         -53.798100     -150.550690      -51.049530
 H         -55.512749     -153.634598      -49.993099
 H         -54.457771     -152.888702      -48.783657
 H         -56.502472     -149.436417      -49.213551
 H         -54.929749     -150.139862      -48.785427
 H         -54.577747     -152.467697      -51.875530
 H         -53.160946     -152.652863      -50.919544
 H         -54.686676     -148.645691      -50.746429
 H         -55.902615     -149.852692      -51.540836
 H         -53.341488     -150.219803      -51.975521
 H         -53.128269     -150.332626      -50.160023
