20
 generated by VMD
 C         -35.169788      -97.900459      -26.106052
 N         -36.252544      -97.534630      -26.300993
 H         -35.741196      -95.271187      -27.962381
 H         -34.190464      -98.130013      -25.944948
 C         -35.341660      -94.998955      -28.913994
 C         -35.914951      -95.823906      -30.046726
 C         -34.004894      -94.160286      -28.965786
 C         -35.533482      -95.167213      -31.347078
 C         -33.879005      -93.589989      -30.425240
 C         -34.139069      -94.556465      -31.545082
 H         -36.997314      -96.112907      -29.965574
 H         -35.306419      -96.795303      -30.044998
 H         -34.035397      -93.251366      -28.285324
 H         -33.181599      -94.812614      -28.652445
 H         -36.145103      -94.295235      -31.398190
 H         -35.709076      -95.731560      -32.252819
 H         -32.831959      -93.235649      -30.413656
 H         -34.395966      -92.691437      -30.603865
 H         -33.970055      -94.076508      -32.499031
 H         -33.333691      -95.441864      -31.435246
