20
 generated by VMD
 C         -51.257866     -127.699158      -41.202271
 N         -51.681324     -128.575043      -41.788864
 H         -47.419098     -127.920570      -40.393101
 H         -50.618050     -126.877274      -40.889812
 C         -46.633667     -127.169548      -40.670017
 C         -45.302898     -127.652351      -40.114952
 C         -46.699818     -125.899384      -41.229961
 C         -44.027489     -127.062073      -40.869770
 C         -45.449009     -125.322296      -41.952072
 C         -44.311306     -125.550438      -40.979771
 H         -45.219887     -128.768250      -40.153091
 H         -45.261791     -127.370033      -39.078064
 H         -47.479271     -126.066277      -41.959892
 H         -47.001522     -125.125877      -40.385483
 H         -43.957447     -127.549255      -41.903893
 H         -43.161610     -127.238220      -40.185204
 H         -45.642105     -124.174919      -42.042778
 H         -45.483608     -125.772758      -42.974442
 H         -43.340694     -125.050011      -41.178333
 H         -44.552975     -125.198097      -39.987366
