20
 generated by VMD
 C         -58.767071     -151.994400      -49.016956
 N         -59.230583     -152.181473      -50.010227
 H         -56.431408     -150.435547      -48.505894
 H         -58.246735     -151.769012      -48.106274
 C         -55.580669     -150.117462      -48.997272
 C         -54.672127     -151.128159      -49.610497
 C         -55.305088     -148.630127      -49.137581
 C         -54.095184     -150.762497      -51.084435
 C         -54.807705     -148.260498      -50.510536
 C         -53.677849     -149.248886      -51.108315
 H         -55.182613     -152.123505      -49.715416
 H         -53.731316     -151.234238      -49.108624
 H         -56.196186     -148.132172      -48.713600
 H         -54.564934     -148.420959      -48.331276
 H         -54.936180     -150.736496      -51.811062
 H         -53.312851     -151.489807      -51.372673
 H         -54.441631     -147.232010      -50.390068
 H         -55.622673     -148.041077      -51.227562
 H         -53.291336     -148.916077      -52.015743
 H         -52.755272     -149.129440      -50.454922
