20
 generated by VMD
 C         -11.365042      -34.004387       -8.311743
 N         -10.735452      -34.334179       -9.139141
 H         -11.706429      -37.748280       -7.879060
 H         -12.525904      -37.101204       -6.512497
 C         -12.568087      -37.899178       -7.276995
 C         -12.538363      -39.245705       -6.639171
 C         -13.855481      -37.684414       -8.058666
 C         -13.745539      -39.602154       -5.845574
 C         -15.096817      -38.092304       -7.258256
 C         -14.991009      -39.474995       -6.709982
 H         -11.610134      -39.317478       -6.104126
 H         -12.332768      -40.006321       -7.400925
 H         -13.994817      -36.714252       -8.469687
 H         -13.933161      -38.312588       -8.993577
 H         -13.855452      -39.006924       -4.954146
 H         -13.638992      -40.620499       -5.388566
 H         -15.963840      -38.109879       -7.872551
 H         -15.275820      -37.329006       -6.392976
 H         -15.877814      -39.821259       -6.162986
 H         -14.881504      -40.123714       -7.632359
