20
 generated by VMD
 C         -51.804298     -129.856277      -45.242615
 N         -51.682758     -129.815704      -46.382816
 H         -48.369061     -130.078659      -43.418671
 H         -51.462769     -129.844910      -44.195000
 C         -47.938881     -130.293900      -42.477486
 C         -47.927502     -131.615738      -41.856712
 C         -47.443390     -129.111115      -41.679420
 C         -46.698990     -131.890015      -41.060230
 C         -46.154972     -129.545776      -40.896851
 C         -46.306831     -130.789948      -40.070866
 H         -48.056274     -132.343338      -42.672604
 H         -48.808376     -131.693573      -41.238903
 H         -47.173950     -128.328842      -42.345188
 H         -48.213646     -128.785690      -40.930996
 H         -45.812740     -131.957169      -41.672417
 H         -46.675095     -132.750702      -40.440403
 H         -45.938595     -128.650024      -40.351154
 H         -45.332352     -129.614883      -41.606724
 H         -45.304398     -130.986374      -39.620110
 H         -47.101032     -130.619583      -39.366661
