20
 generated by VMD
 C         -46.921467     -124.937943      -38.123188
 N         -47.966965     -125.475731      -38.217419
 H         -44.728039     -122.073074      -37.714054
 H         -46.094612     -124.227173      -38.000698
 C         -44.665291     -122.273499      -38.768276
 C         -43.522606     -122.811958      -39.562107
 C         -45.732349     -121.486069      -39.425888
 C         -44.070786     -123.557518      -40.845032
 C         -46.155483     -122.163040      -40.811684
 C         -44.939484     -122.649513      -41.678413
 H         -43.074188     -123.685425      -38.978516
 H         -42.708603     -122.009453      -39.684200
 H         -46.617348     -121.254509      -38.785881
 H         -45.220528     -120.509773      -39.664425
 H         -44.674660     -124.460297      -40.543579
 H         -43.162716     -123.940659      -41.381409
 H         -46.901020     -121.538399      -41.248241
 H         -46.673550     -123.029663      -40.581661
 H         -45.300140     -123.253494      -42.514568
 H         -44.366550     -121.793236      -42.114330
