20
 generated by VMD
 C         -58.700184     -168.518616      -54.953365
 N         -57.506672     -168.677338      -54.941792
 H         -62.202736     -168.578537      -55.681419
 H         -59.780415     -168.336319      -54.846466
 C         -62.333660     -167.619705      -56.258434
 C         -62.737068     -167.874908      -57.690529
 C         -62.842838     -166.307571      -55.645252
 C         -64.163170     -167.585983      -58.063786
 C         -64.341179     -166.105988      -55.977119
 C         -64.533455     -166.240219      -57.495567
 H         -62.404198     -169.026901      -58.070698
 H         -62.077595     -167.268890      -58.228966
 H         -62.821033     -166.421783      -54.573509
 H         -62.421436     -165.431641      -56.048229
 H         -64.798973     -168.431519      -57.707973
 H         -64.151794     -167.686447      -59.177078
 H         -64.592010     -165.044052      -55.577229
 H         -65.202896     -166.771194      -55.391239
 H         -65.571007     -166.108734      -57.646446
 H         -64.030617     -165.422119      -58.039730
