20
 generated by VMD
 C         -19.594790      -58.272629      -17.170828
 N         -19.238810      -58.717258      -18.195068
 H         -22.882498      -59.658848      -16.508900
 H         -19.676395      -57.710358      -16.199783
 C         -22.891199      -60.668022      -16.214439
 C         -23.817232      -61.566204      -17.001425
 C         -22.373707      -61.134026      -14.860123
 C         -23.357193      -63.054741      -16.861057
 C         -22.014130      -62.662773      -14.825951
 C         -23.128992      -63.486816      -15.450620
 H         -23.655014      -61.300735      -18.026253
 H         -24.812077      -61.411533      -16.700756
 H         -21.392769      -60.556297      -14.697320
 H         -23.144247      -61.082458      -14.055327
 H         -22.452517      -63.267857      -17.508711
 H         -24.128178      -63.744232      -17.355679
 H         -21.815081      -62.918949      -13.796224
 H         -21.170916      -62.669960      -15.508153
 H         -22.936205      -64.536659      -15.250134
 H         -24.140455      -63.246162      -14.942208
