20
 generated by VMD
 C         -11.666055      -39.207882       -6.339914
 N         -11.546952      -38.955627       -7.439247
 H         -12.802682      -41.116859       -9.076064
 H         -13.897479      -39.990902       -8.667784
 C         -13.848689      -41.036270       -8.978271
 C         -14.473036      -42.017315       -7.989298
 C         -14.429962      -41.129326      -10.376209
 C         -16.023581      -41.796200       -7.918321
 C         -15.933640      -40.771954      -10.268325
 C         -16.673798      -41.724087       -9.310910
 H         -14.070599      -41.958061       -6.959037
 H         -14.236654      -43.053749       -8.242890
 H         -13.919312      -40.512947      -11.166897
 H         -14.387114      -42.137230      -10.774949
 H         -16.222284      -40.863422       -7.325271
 H         -16.559397      -42.526100       -7.293311
 H         -16.412331      -40.761726      -11.234533
 H         -15.882235      -39.751274       -9.866141
 H         -17.723955      -41.419758       -9.195460
 H         -16.552076      -42.722210       -9.683252
