20
 generated by VMD
 C         -69.953743     -183.031418      -65.936478
 N         -71.059586     -183.074326      -65.702370
 H         -67.094635     -183.202255      -63.153736
 H         -68.873322     -183.019791      -66.186836
 C         -67.362160     -182.762146      -62.191753
 C         -67.721313     -183.729965      -60.978249
 C         -67.323334     -181.238403      -61.976795
 C         -66.893852     -183.155777      -59.776783
 C         -66.337868     -180.940659      -60.857899
 C         -66.696945     -181.642349      -59.572693
 H         -67.387665     -184.756790      -61.179955
 H         -68.856163     -183.498047      -60.957836
 H         -67.125359     -180.794067      -63.010864
 H         -68.361687     -180.864349      -61.685459
 H         -65.982811     -183.702225      -59.916363
 H         -67.420967     -183.404556      -58.790398
 H         -66.200272     -179.858185      -60.609531
 H         -65.340652     -181.293259      -61.221241
 H         -65.840355     -181.565598      -58.775726
 H         -67.587219     -181.170624      -59.147530
