20
 generated by VMD
 C         -48.033146     -133.952759      -47.570141
 N         -48.100365     -133.313263      -48.604004
 H         -49.448254     -134.158997      -44.145515
 H         -47.863708     -134.398865      -46.547226
 C         -50.005852     -135.006989      -43.629333
 C         -50.226994     -136.228180      -44.499378
 C         -51.088345     -134.728439      -42.578114
 C         -50.549644     -137.411362      -43.706871
 C         -51.322369     -135.970016      -41.781975
 C         -51.687233     -137.162430      -42.740971
 H         -49.307907     -136.366302      -45.071350
 H         -50.996403     -135.886978      -45.178692
 H         -50.784157     -133.867477      -41.926830
 H         -51.974590     -134.454208      -43.023376
 H         -49.640335     -137.566376      -43.186382
 H         -50.689362     -138.382095      -44.283184
 H         -52.226997     -135.848694      -41.123249
 H         -50.469612     -136.356216      -41.103695
 H         -51.854488     -138.181992      -42.219296
 H         -52.564770     -136.947235      -43.323330
