20
 generated by VMD
 C         -51.249001     -145.467819      -44.150696
 N         -51.236744     -146.403778      -44.765022
 H         -53.804745     -145.056610      -46.863319
 H         -51.265976     -144.617432      -43.484764
 C         -53.670631     -144.190369      -47.472523
 C         -52.742184     -144.105209      -48.520973
 C         -54.691868     -143.118637      -47.311577
 C         -53.416698     -143.808929      -49.914478
 C         -55.496902     -142.936615      -48.648735
 C         -54.445435     -142.643219      -49.763115
 H         -52.007954     -144.980377      -48.534992
 H         -52.081879     -143.215210      -48.375771
 H         -55.524258     -143.425644      -46.644650
 H         -54.108608     -142.238266      -47.006454
 H         -53.965736     -144.698120      -50.110394
 H         -52.724239     -143.620636      -50.675945
 H         -56.091862     -142.021729      -48.531063
 H         -56.024155     -143.880066      -48.842045
 H         -54.908314     -142.461884      -50.739754
 H         -54.014389     -141.584793      -49.465736
