20
 generated by VMD
 C         -13.160837      -31.072786       -8.245934
 N         -12.734282      -30.099949       -8.558312
 H         -11.429838      -32.598400       -6.876609
 H         -11.989134      -32.340984       -5.256654
 C         -11.480297      -33.082603       -5.859967
 C         -10.020364      -33.190483       -5.376125
 C         -12.223671      -34.401321       -5.846480
 C          -9.931569      -33.828186       -4.010940
 C         -12.093283      -35.007561       -4.461064
 C         -10.634464      -35.213249       -4.024288
 H          -9.471681      -32.191860       -5.397541
 H          -9.442167      -33.744263       -6.074576
 H         -13.279836      -34.212914       -6.157270
 H         -11.850467      -35.125031       -6.616169
 H         -10.454987      -33.240871       -3.241042
 H          -8.908353      -33.769947       -3.578847
 H         -12.726303      -35.882496       -4.357009
 H         -12.527023      -34.320686       -3.662954
 H         -10.626504      -35.757656       -3.099033
 H         -10.106583      -35.850651       -4.783758
