20
 generated by VMD
 C          -1.968082      -16.814907        2.867002
 N          -2.286473      -16.050144        2.119485
 H          -4.387883      -15.789175       -0.058985
 H          -4.517628      -17.174875       -1.152799
 C          -5.048801      -16.584906       -0.363506
 C          -6.309820      -15.933607       -0.974597
 C          -5.370300      -17.595608        0.740582
 C          -7.443573      -16.937939       -1.219693
 C          -6.361042      -18.602537        0.298107
 C          -7.739386      -17.918291       -0.096715
 H          -5.972336      -15.544125       -1.964850
 H          -6.663745      -15.019935       -0.470742
 H          -4.436064      -18.008907        1.066075
 H          -5.612824      -17.065563        1.621896
 H          -7.239880      -17.477470       -2.137525
 H          -8.306843      -16.347366       -1.526097
 H          -6.570141      -19.249277        1.118903
 H          -6.075048      -19.241140       -0.538171
 H          -8.380212      -18.717974       -0.514885
 H          -8.189301      -17.527895        0.828847
