20
 generated by VMD
 C         -69.311264     -185.054871      -66.615303
 N         -69.268204     -185.095901      -67.792717
 H         -69.458328     -183.115387      -63.296776
 H         -69.398468     -184.985107      -65.560417
 C         -69.270531     -183.238190      -62.245174
 C         -69.694466     -184.430878      -61.478977
 C         -68.170616     -182.537048      -61.571289
 C         -68.640106     -185.432053      -61.006405
 C         -66.996422     -183.393906      -61.245338
 C         -67.393646     -184.663452      -60.524464
 H         -70.405525     -184.958939      -62.091602
 H         -70.087837     -184.187119      -60.488655
 H         -67.940186     -181.758865      -62.270741
 H         -68.414322     -181.988785      -60.642193
 H         -68.214821     -186.075760      -61.789890
 H         -68.986794     -186.122025      -60.203487
 H         -66.138008     -182.733841      -60.857990
 H         -66.505493     -183.767914      -62.168598
 H         -66.525879     -185.339920      -60.518570
 H         -67.474251     -184.413986      -59.397751
