20
 generated by VMD
 C         -77.952690     -210.092453      -76.324303
 N         -77.220375     -211.004990      -76.190796
 H         -80.537369     -212.846909      -75.124123
 H         -78.610786     -209.160721      -76.490715
 C         -80.305359     -213.181839      -74.058655
 C         -78.906181     -213.357620      -73.619125
 C         -81.218849     -214.046555      -73.323563
 C         -78.627655     -213.044907      -72.082825
 C         -81.073212     -213.790573      -71.799088
 C         -79.636520     -213.871887      -71.329430
 H         -78.305061     -212.546219      -74.074387
 H         -78.615875     -214.340668      -73.871208
 H         -82.300545     -213.828613      -73.490074
 H         -81.014275     -215.029190      -73.592033
 H         -78.716415     -211.947571      -71.937202
 H         -77.526169     -213.077408      -71.878052
 H         -81.689957     -214.581833      -71.209511
 H         -81.455269     -212.831909      -71.551971
 H         -79.581795     -213.686096      -70.265404
 H         -79.304710     -214.936340      -71.338989
