20
 generated by VMD
 C         -58.549843     -151.552582      -49.613365
 N         -59.095730     -152.184097      -48.807308
 H         -55.718258     -149.924103      -47.991226
 H         -57.916931     -151.028793      -50.261002
 C         -55.070583     -149.522125      -48.726707
 C         -54.221096     -150.587540      -49.421707
 C         -54.848541     -148.048996      -48.950977
 C         -54.217503     -150.223175      -50.872589
 C         -54.814350     -147.725510      -50.429287
 C         -53.861828     -148.733978      -51.131691
 H         -54.709183     -151.552155      -49.315804
 H         -53.203072     -150.465118      -49.060921
 H         -55.700813     -147.378891      -48.548935
 H         -53.896160     -147.820755      -48.405575
 H         -55.209641     -150.605286      -51.175217
 H         -53.507633     -150.839050      -51.411777
 H         -54.728123     -146.700729      -50.940521
 H         -55.843544     -147.993103      -50.859352
 H         -53.860031     -148.583588      -52.268707
 H         -52.804932     -148.496078      -50.810581
