20
 generated by VMD
 C         -47.542236     -138.197876      -45.815739
 N         -47.202713     -137.974274      -46.847790
 H         -50.561764     -137.425461      -44.889400
 H         -47.908230     -138.178101      -44.781021
 C         -51.370468     -138.140457      -44.930363
 C         -51.420403     -138.889648      -46.311226
 C         -52.638634     -137.910583      -44.080151
 C         -52.671097     -139.881241      -46.403351
 C         -53.698898     -138.997147      -44.264000
 C         -53.916672     -139.256714      -45.828110
 H         -50.634670     -139.709274      -46.442429
 H         -51.452164     -138.120102      -47.115089
 H         -52.268456     -137.948227      -43.060593
 H         -53.178635     -137.002777      -44.399170
 H         -52.353951     -140.794449      -45.782707
 H         -52.857845     -140.066528      -47.468292
 H         -54.670464     -138.648926      -43.921761
 H         -53.200340     -139.945694      -43.703888
 H         -54.731987     -139.830566      -45.871143
 H         -54.136513     -138.311203      -46.333580
