20
 generated by VMD
 C          -1.224343      -12.860445        1.155777
 N          -0.603764      -12.848044        0.211932
 H          -4.251114      -12.944865        1.495152
 H          -5.742227      -13.273801        0.657132
 C          -4.969171      -13.755466        1.318405
 C          -5.693333      -14.080610        2.573219
 C          -4.388925      -14.962190        0.570863
 C          -6.641463      -15.264365        2.495434
 C          -5.504372      -16.077333        0.356672
 C          -5.994452      -16.482254        1.756165
 H          -6.385531      -13.236459        2.857367
 H          -4.939680      -14.376468        3.324182
 H          -3.938282      -14.800216       -0.452365
 H          -3.552233      -15.467018        1.206635
 H          -7.552345      -15.042562        1.976977
 H          -6.890883      -15.608095        3.504789
 H          -5.026981      -16.979904       -0.059505
 H          -6.308488      -15.774134       -0.288557
 H          -6.734917      -17.268152        1.776995
 H          -5.168396      -16.779203        2.391552
