20
 generated by VMD
 C         -56.626453     -149.959366      -47.789234
 N         -57.612957     -150.479950      -48.255875
 H         -53.474174     -148.683899      -47.393326
 H         -55.706642     -149.506592      -47.377460
 C         -53.951149     -148.322845      -48.344803
 C         -53.232525     -148.941345      -49.621868
 C         -54.776363     -147.056076      -48.519680
 C         -54.194187     -148.956360      -50.825031
 C         -55.548347     -147.058685      -49.782436
 C         -54.801071     -147.670135      -50.981060
 H         -52.999569     -150.049713      -49.259144
 H         -52.394409     -148.362000      -49.972507
 H         -55.546795     -146.953735      -47.718746
 H         -54.086006     -146.161804      -48.406094
 H         -54.938602     -149.782684      -50.805126
 H         -53.502518     -149.188477      -51.629311
 H         -55.836765     -146.012665      -50.041256
 H         -56.524380     -147.731949      -49.786366
 H         -55.557117     -147.820175      -51.792957
 H         -54.073864     -146.906799      -51.388115
