20
 generated by VMD
 C         -47.756588     -136.847031      -46.096455
 N         -47.121822     -136.576920      -46.985661
 H         -50.593739     -136.009186      -45.046600
 H         -48.445114     -137.228195      -45.319546
 C         -51.056572     -136.968124      -44.919079
 C         -51.348232     -137.930344      -46.034161
 C         -52.048626     -136.774994      -43.857582
 C         -52.121197     -139.126511      -45.602242
 C         -52.736565     -138.086807      -43.414017
 C         -53.252728     -138.876129      -44.593395
 H         -50.458199     -138.301315      -46.512962
 H         -51.859924     -137.418518      -46.935684
 H         -51.475513     -136.325226      -42.981724
 H         -52.735806     -135.955994      -44.126549
 H         -51.467152     -139.765182      -45.075619
 H         -52.468140     -139.547760      -46.567146
 H         -53.510635     -137.888138      -42.641720
 H         -51.915333     -138.713394      -43.080238
 H         -53.656761     -139.804077      -44.315025
 H         -54.106205     -138.345200      -45.023350
