20
 generated by VMD
 C         -20.087704      -56.090633      -16.698484
 N         -21.228975      -56.372761      -16.680746
 H         -22.066145      -59.326443      -17.385944
 H         -19.168221      -55.992348      -17.151039
 C         -22.369394      -59.868065      -16.438522
 C         -22.478512      -59.236084      -15.108050
 C         -22.015747      -61.458160      -16.484777
 C         -21.540970      -59.779312      -14.070373
 C         -20.728542      -61.659733      -15.628872
 C         -20.933954      -61.178192      -14.186776
 H         -23.460947      -59.566826      -14.862638
 H         -22.388535      -58.180195      -15.137632
 H         -22.902618      -62.032475      -16.065763
 H         -21.798777      -61.741554      -17.551132
 H         -21.745157      -59.428856      -13.013015
 H         -20.642960      -59.118969      -14.253137
 H         -19.960308      -61.071560      -16.121595
 H         -20.445459      -62.702175      -15.688231
 H         -21.709921      -61.831692      -13.735046
 H         -19.994204      -61.296783      -13.651752
