20
 generated by VMD
 C         -19.673098      -57.663445      -16.931028
 N         -19.241398      -58.200359      -17.901571
 H         -22.476353      -59.604504      -17.050365
 H         -20.205441      -57.120880      -16.287376
 C         -22.617599      -60.536594      -16.520256
 C         -23.866917      -61.404545      -16.600454
 C         -21.729176      -60.819252      -15.334222
 C         -23.844242      -62.823109      -16.199642
 C         -21.544252      -62.296108      -15.061597
 C         -22.863529      -63.130135      -15.084353
 H         -24.304808      -61.325092      -17.592463
 H         -24.497726      -61.041088      -15.858634
 H         -20.869553      -60.186954      -15.509515
 H         -22.148901      -60.347717      -14.446141
 H         -23.652884      -63.408669      -17.131289
 H         -24.850122      -63.043476      -15.755633
 H         -21.017233      -62.521996      -14.084512
 H         -20.779158      -62.767529      -15.698815
 H         -22.580410      -64.255119      -15.114481
 H         -23.356552      -63.026764      -14.085714
