20
 generated by VMD
 C         -30.798002      -75.545341      -21.387081
 N         -31.819347      -75.225693      -21.010469
 H         -27.551466      -74.947052      -19.622993
 H         -29.695999      -75.750572      -21.250961
 C         -26.870411      -74.859818      -20.434889
 C         -26.556475      -75.991371      -21.333698
 C         -25.840117      -73.769173      -20.394938
 C         -26.038548      -75.630226      -22.710062
 C         -25.377586      -73.410309      -21.829605
 C         -24.881765      -74.595345      -22.554304
 H         -27.340445      -76.599472      -21.467592
 H         -25.871624      -76.668564      -20.803751
 H         -26.255377      -72.729538      -19.912258
 H         -25.005198      -74.163902      -19.770231
 H         -26.846365      -75.220039      -23.311922
 H         -25.759205      -76.544762      -23.233900
 H         -24.492838      -72.673759      -21.758886
 H         -26.153061      -72.685394      -22.252142
 H         -24.794252      -74.327126      -23.600351
 H         -23.915434      -74.864670      -22.097155
