20
 generated by VMD
 C         -30.981409      -78.395393      -25.861198
 N         -31.308891      -77.529503      -25.176458
 H         -29.426382      -77.431137      -23.080004
 H         -30.644661      -79.293434      -26.183811
 C         -28.808819      -78.256805      -22.725218
 C         -27.376909      -78.299225      -22.979588
 C         -29.571295      -79.341560      -22.055971
 C         -26.593225      -79.414879      -22.338575
 C         -28.628407      -80.286087      -21.272274
 C         -27.398855      -80.690376      -22.049534
 H         -26.942047      -77.289108      -22.702396
 H         -27.098341      -78.129944      -24.044142
 H         -30.399914      -79.022621      -21.345577
 H         -30.138741      -79.903885      -22.841450
 H         -25.984632      -79.130478      -21.446915
 H         -25.932476      -79.696808      -23.206810
 H         -29.134501      -81.241409      -21.086571
 H         -28.154016      -79.887291      -20.262009
 H         -26.777777      -81.394157      -21.502781
 H         -27.843330      -81.223503      -22.968597
