20
 generated by VMD
 C         -30.160021      -80.183327      -26.452440
 N         -29.461990      -79.271011      -26.241123
 H         -28.396843      -82.813889      -25.512484
 H         -30.620577      -81.203896      -26.442587
 C         -29.107567      -82.900719      -24.680069
 C         -28.980925      -81.994888      -23.513016
 C         -30.067381      -83.985802      -24.694468
 C         -30.272274      -81.931801      -22.623854
 C         -31.165991      -83.970665      -23.627747
 C         -30.767212      -83.336418      -22.265928
 H         -28.707067      -81.066689      -23.869928
 H         -28.134478      -82.506218      -23.043499
 H         -30.559755      -84.155540      -25.631128
 H         -29.413073      -84.912888      -24.570059
 H         -31.267689      -81.425819      -23.030552
 H         -30.082909      -81.250122      -21.821470
 H         -31.401306      -85.002876      -23.363714
 H         -32.148842      -83.587524      -24.168858
 H         -31.591782      -83.143166      -21.588720
 H         -29.948355      -83.841133      -21.676777
