20
 generated by VMD
 C         -11.473882      -41.859760       -7.001687
 N         -11.892538      -42.336353       -6.103519
 H         -14.942594      -43.407448       -8.128502
 H         -14.739141      -41.978867       -9.098988
 C         -15.340672      -42.909134       -9.153501
 C         -16.838978      -42.686390       -8.940540
 C         -14.862454      -43.741386      -10.323116
 C         -17.546246      -42.494709      -10.299870
 C         -15.578794      -43.422939      -11.593919
 C         -17.058628      -43.487362      -11.323221
 H         -17.049953      -41.796753       -8.321472
 H         -17.235493      -43.638020       -8.437314
 H         -13.809983      -43.624199      -10.518840
 H         -15.068851      -44.829342      -10.111856
 H         -17.434765      -41.442585      -10.533570
 H         -18.607220      -42.690041      -10.206042
 H         -15.237167      -44.065239      -12.438210
 H         -15.269676      -42.438717      -11.949228
 H         -17.632494      -43.328247      -12.233423
 H         -17.365223      -44.505436      -11.029626
