20
 generated by VMD
 C         -49.580715     -141.576553      -45.677776
 N         -49.627628     -142.369415      -44.869984
 H         -51.712444     -138.685089      -46.193462
 H         -49.719803     -140.825287      -46.464836
 C         -52.255573     -139.521667      -46.530998
 C         -52.850262     -139.591095      -47.836224
 C         -52.915028     -140.223892      -45.324615
 C         -53.068111     -141.076843      -48.161301
 C         -53.329887     -141.593643      -45.728832
 C         -53.916660     -141.808502      -47.183823
 H         -52.048981     -139.173172      -48.447933
 H         -53.740696     -138.936859      -47.939777
 H         -52.262463     -140.383789      -44.474491
 H         -53.908001     -139.697845      -45.138023
 H         -52.134151     -141.509079      -48.244926
 H         -53.387001     -141.182602      -49.182484
 H         -54.027912     -142.116516      -45.100365
 H         -52.336834     -142.212708      -45.669735
 H         -53.965424     -142.924530      -47.370319
 H         -54.913708     -141.389252      -47.354939
