20
 generated by VMD
 C         -60.425816     -169.655930      -55.237103
 N         -59.387924     -169.139877      -55.293758
 H         -63.474796     -170.626297      -56.828358
 H         -61.433033     -170.064850      -55.148315
 C         -63.378338     -169.606415      -56.980827
 C         -62.645344     -169.084366      -58.160164
 C         -63.799061     -168.634186      -55.952763
 C         -63.209267     -167.767334      -58.701515
 C         -64.330254     -167.334167      -56.452122
 C         -63.567261     -166.689758      -57.630398
 H         -62.625896     -169.907806      -59.040192
 H         -61.636837     -168.901886      -58.004337
 H         -64.542694     -169.276642      -55.327305
 H         -62.852638     -168.626648      -55.328873
 H         -64.120369     -168.112030      -59.186909
 H         -62.525173     -167.178482      -59.341629
 H         -64.424820     -166.512360      -55.707630
 H         -65.437958     -167.429260      -56.942333
 H         -64.166733     -165.851624      -58.067188
 H         -62.597404     -166.385391      -57.245773
