20
 generated by VMD
 C         -66.975128     -191.361115      -66.201958
 N         -67.524055     -190.766388      -67.053703
 H         -70.404564     -190.168411      -66.487831
 H         -66.424843     -192.072144      -65.632866
 C         -71.114731     -190.196808      -65.690163
 C         -72.077179     -191.270599      -65.544601
 C         -70.868561     -189.222900      -64.559853
 C         -73.381432     -190.760452      -64.745583
 C         -71.944023     -188.942322      -63.499722
 C         -72.960953     -190.139862      -63.424316
 H         -71.474854     -192.099640      -65.177185
 H         -72.362770     -191.558426      -66.560173
 H         -69.907898     -189.544342      -64.105659
 H         -70.475204     -188.245636      -65.013466
 H         -74.038063     -191.597549      -64.514236
 H         -74.023880     -190.056122      -65.334389
 H         -72.365936     -188.040604      -63.934090
 H         -71.435829     -188.708160      -62.585251
 H         -72.405609     -190.842911      -62.886154
 H         -73.927711     -190.056793      -62.874531
