20
 generated by VMD
 C         -70.311028     -182.724182      -64.959557
 N         -70.604836     -183.715195      -65.547531
 H         -67.863106     -181.252670      -62.953342
 H         -69.958916     -181.821152      -64.442451
 C         -67.444672     -181.294754      -61.932262
 C         -67.823341     -182.417877      -61.154152
 C         -66.999870     -180.083252      -61.282864
 C         -66.546883     -182.823364      -60.364388
 C         -65.830956     -180.281616      -60.379063
 C         -65.981575     -181.587738      -59.633640
 H         -68.257347     -183.245834      -61.748665
 H         -68.672890     -182.211517      -60.348736
 H         -66.771805     -179.425461      -62.035877
 H         -67.862129     -179.767151      -60.751522
 H         -65.738632     -183.041687      -60.965202
 H         -66.828270     -183.605682      -59.689377
 H         -65.727097     -179.440750      -59.687965
 H         -64.909286     -180.358047      -60.972969
 H         -65.063194     -181.981277      -59.232964
 H         -66.781532     -181.455750      -58.809963
