20
 generated by VMD
 C         -11.926680      -25.601028       -0.790339
 N         -12.489711      -25.544533        0.180966
 H          -8.535462      -26.559788       -1.683280
 H          -9.247425      -25.959339       -3.137103
 C          -8.261533      -26.054779       -2.630289
 C          -7.446267      -26.829329       -3.592956
 C          -7.661434      -24.714048       -2.315600
 C          -7.095819      -26.009083       -4.830515
 C          -7.370836      -23.912189       -3.494700
 C          -6.487631      -24.637053       -4.473243
 H          -8.009019      -27.793371       -3.897015
 H          -6.392413      -27.029556       -3.166346
 H          -8.329937      -24.113873       -1.634447
 H          -6.698390      -24.890408       -1.849888
 H          -8.070830      -25.811405       -5.342604
 H          -6.444624      -26.638296       -5.482025
 H          -6.947209      -22.948067       -3.219122
 H          -8.283024      -23.611403       -4.038611
 H          -6.283923      -24.047703       -5.385306
 H          -5.525671      -24.750795       -4.028777
