20
 generated by VMD
 C         -55.563103     -148.911087      -45.371853
 N         -54.899334     -149.304443      -44.542442
 H         -54.676483     -148.098892      -48.579216
 H         -56.122223     -148.423447      -46.153873
 C         -54.312523     -147.221100      -49.009651
 C         -53.134567     -147.150116      -49.996468
 C         -54.957802     -145.949066      -48.533371
 C         -53.340996     -146.086090      -51.103172
 C         -55.187122     -145.038513      -49.677063
 C         -53.915432     -144.775299      -50.467144
 H         -53.263176     -148.182129      -50.370415
 H         -52.253536     -146.988922      -49.538239
 H         -56.009544     -146.123001      -48.069984
 H         -54.334236     -145.547363      -47.738979
 H         -54.125694     -146.460480      -51.727119
 H         -52.467258     -145.890778      -51.760681
 H         -55.398201     -144.131424      -49.262199
 H         -56.045898     -145.411484      -50.360699
 H         -54.107029     -144.328339      -51.375042
 H         -53.152515     -144.287170      -49.834942
