20
 generated by VMD
 C         -69.261154     -180.018677      -62.093418
 N         -69.580956     -181.100632      -62.337391
 H         -66.611435     -180.565643      -59.274490
 H         -68.905106     -179.033066      -61.766380
 C         -66.273552     -179.601288      -59.639561
 C         -65.353790     -179.789749      -60.888638
 C         -66.065857     -178.315048      -58.818665
 C         -65.381157     -178.616425      -61.767120
 C         -66.044106     -177.132706      -59.832733
 C         -64.973145     -177.428986      -60.902481
 H         -65.571152     -180.697830      -61.520660
 H         -64.249763     -179.992111      -60.605705
 H         -66.924797     -178.164291      -58.075203
 H         -65.142715     -178.411057      -58.266708
 H         -66.502556     -178.386978      -62.022976
 H         -64.649818     -178.711777      -62.663387
 H         -65.680412     -176.255844      -59.340736
 H         -67.053589     -176.867264      -60.199379
 H         -64.837196     -176.699875      -61.611301
 H         -63.924019     -177.376907      -60.683960
