20
 generated by VMD
 C         -32.239544      -93.872169      -25.327225
 N         -33.151375      -94.536896      -25.489071
 H         -33.873154      -95.118660      -28.498701
 H         -31.392496      -93.144440      -25.092319
 C         -34.258579      -94.216766      -28.965637
 C         -35.576050      -93.632294      -28.667654
 C         -33.629559      -93.453972      -30.094984
 C         -35.547668      -92.072853      -28.449163
 C         -33.558121      -91.891945      -30.026621
 C         -34.957348      -91.402077      -29.588127
 H         -35.991001      -94.043037      -27.772989
 H         -36.364475      -93.694801      -29.461508
 H         -32.576195      -93.737808      -30.225443
 H         -34.120670      -93.835045      -31.008295
 H         -34.952477      -91.767128      -27.575464
 H         -36.476204      -91.595810      -28.205828
 H         -33.310722      -91.507027      -30.998861
 H         -32.718693      -91.753670      -29.303095
 H         -34.927555      -90.264809      -29.532700
 H         -35.633228      -91.434341      -30.563128
