20
 generated by VMD
 C         -68.588097     -185.623230      -66.460747
 N         -67.963760     -186.289398      -67.165649
 H         -69.446007     -183.306076      -63.654621
 H         -69.281677     -184.974686      -65.855530
 C         -69.474091     -184.229996      -63.057411
 C         -70.723633     -184.767731      -62.415527
 C         -68.171410     -185.037766      -63.002705
 C         -70.448090     -185.870560      -61.244724
 C         -67.943115     -185.671829      -61.631481
 C         -69.081863     -186.598419      -61.304340
 H         -71.283386     -185.300995      -63.180771
 H         -71.460686     -184.046524      -62.019562
 H         -68.285980     -185.674744      -63.835773
 H         -67.288849     -184.408768      -63.278561
 H         -71.188240     -186.699753      -61.239902
 H         -70.534927     -185.219818      -60.300922
 H         -67.730865     -184.879883      -60.911816
 H         -67.060196     -186.340759      -61.684258
 H         -69.164169     -187.516098      -61.906788
 H         -69.002594     -187.062347      -60.370537
