20
 generated by VMD
 C         -59.491692     -158.236664      -57.334511
 N         -58.422581     -158.527420      -57.772064
 H         -60.270386     -158.165192      -53.432110
 H         -60.444229     -157.914886      -56.938412
 C         -60.032227     -159.102692      -52.855831
 C         -58.565269     -159.199600      -52.503338
 C         -60.690376     -160.441132      -53.122833
 C         -58.389271     -160.207840      -51.334938
 C         -60.452099     -161.629608      -52.169025
 C         -58.949070     -161.655396      -51.729092
 H         -58.243572     -158.174820      -52.104580
 H         -57.975338     -159.637222      -53.292385
 H         -61.665955     -160.150299      -53.419216
 H         -60.217583     -160.764984      -54.020805
 H         -58.939518     -159.670441      -50.522263
 H         -57.390186     -160.240601      -51.056061
 H         -60.661942     -162.650177      -52.570683
 H         -61.095261     -161.394043      -51.337955
 H         -58.909718     -162.329849      -50.847473
 H         -58.256969     -162.120087      -52.409370
