20
 generated by VMD
 C         -49.046120     -126.942589      -38.890667
 N         -50.031834     -127.245613      -38.372433
 H         -47.030254     -124.881828      -39.722507
 H         -48.126850     -126.674927      -39.423149
 C         -46.026054     -124.514854      -40.142017
 C         -44.627789     -125.123230      -39.969387
 C         -46.144672     -122.995995      -40.446190
 C         -43.686237     -124.651085      -41.058598
 C         -45.263477     -122.649635      -41.576000
 C         -43.792706     -123.209686      -41.490616
 H         -44.689930     -126.168266      -40.012028
 H         -44.368938     -124.719208      -38.954704
 H         -47.249722     -122.808914      -40.792530
 H         -46.041656     -122.374123      -39.520226
 H         -43.726490     -125.385185      -41.936504
 H         -42.649021     -124.850693      -40.664341
 H         -45.208065     -121.530556      -41.375004
 H         -45.721512     -122.715416      -42.619656
 H         -43.377434     -122.983055      -42.458199
 H         -43.180256     -122.560188      -40.863098
