20
 generated by VMD
 C          -2.632781      -16.810492        2.821362
 N          -2.037935      -16.956327        1.884385
 H          -4.703546      -16.016008        0.376466
 H          -4.382572      -17.211748       -0.852537
 C          -5.165974      -16.793261       -0.171319
 C          -6.267251      -16.190096       -1.020169
 C          -5.781294      -17.778738        0.867515
 C          -7.241627      -17.185616       -1.557610
 C          -6.587719      -18.895742        0.190485
 C          -7.772205      -18.177345       -0.538682
 H          -5.842406      -15.605316       -1.893780
 H          -6.765480      -15.482410       -0.391096
 H          -4.919109      -18.174810        1.406320
 H          -6.400471      -17.051252        1.509910
 H          -6.741118      -17.718107       -2.405247
 H          -8.017345      -16.666624       -2.067873
 H          -6.946397      -19.704582        0.883284
 H          -5.996060      -19.369896       -0.607935
 H          -8.513615      -18.858282       -0.927792
 H          -8.320224      -17.613787        0.244114
