20
 generated by VMD
 C         -57.984993     -168.319687      -55.033997
 N         -56.840389     -168.564926      -54.897171
 H         -61.524925     -167.312469      -55.442307
 H         -59.024517     -168.162704      -55.324078
 C         -62.308163     -166.983261      -56.080456
 C         -62.714748     -167.623169      -57.372887
 C         -63.089794     -165.766205      -55.577961
 C         -64.170052     -167.455414      -57.745235
 C         -64.491013     -165.793442      -55.957615
 C         -64.680786     -166.109009      -57.448578
 H         -62.414761     -168.585724      -57.440281
 H         -61.998203     -166.995102      -58.021797
 H         -63.059967     -165.697418      -54.537228
 H         -62.587360     -164.876663      -56.073574
 H         -64.690994     -168.212219      -57.182381
 H         -64.238197     -167.727646      -58.759457
 H         -65.051666     -164.822968      -55.973320
 H         -65.095688     -166.577484      -55.421234
 H         -65.800636     -165.991989      -57.598595
 H         -64.217270     -165.274246      -58.045120
