20
 generated by VMD
 C         -79.366997     -205.474960      -70.862801
 N         -80.370674     -205.913818      -71.318626
 H         -77.149742     -203.242355      -70.723267
 H         -78.399429     -204.981293      -70.712181
 C         -76.111214     -203.271606      -70.328629
 C         -75.327415     -202.057434      -70.158287
 C         -75.794243     -204.617279      -69.833443
 C         -73.875397     -202.515442      -70.580521
 C         -74.463081     -204.527328      -69.025269
 C         -73.407860     -203.722641      -69.817070
 H         -75.420303     -201.646011      -69.151672
 H         -75.591301     -201.234741      -70.864540
 H         -76.636833     -205.109711      -69.381660
 H         -75.650246     -205.338852      -70.587456
 H         -73.216331     -201.673248      -70.371422
 H         -73.802177     -202.734848      -71.673706
 H         -74.084389     -205.523773      -69.041252
 H         -74.479210     -204.227875      -67.917877
 H         -72.550735     -203.433731      -69.176430
 H         -72.888695     -204.340088      -70.547112
