20
 generated by VMD
 C         -20.030972      -60.164177      -16.999790
 N         -18.933247      -60.436813      -17.201773
 H         -23.138914      -60.650501      -17.122435
 H         -21.088606      -59.756695      -16.873676
 C         -23.173737      -61.675316      -16.880304
 C         -23.488125      -62.615681      -18.021788
 C         -23.345205      -62.185757      -15.510872
 C         -23.904503      -64.154228      -17.864782
 C         -23.148764      -63.622433      -15.380889
 C         -23.956749      -64.462624      -16.332186
 H         -22.651045      -62.593292      -18.773516
 H         -24.518890      -62.213688      -18.476240
 H         -22.687403      -61.675968      -14.823235
 H         -24.446995      -61.924740      -15.196203
 H         -23.180349      -64.786179      -18.334143
 H         -24.830624      -64.331787      -18.449478
 H         -23.337688      -63.878281      -14.307645
 H         -22.096861      -63.989319      -15.329366
 H         -23.736446      -65.552940      -16.255522
 H         -25.022467      -64.456223      -15.886811
