20
 generated by VMD
 C         -50.873657     -130.839462      -46.359020
 N         -50.297585     -130.753540      -47.335346
 H         -48.267311     -131.897751      -44.388405
 H         -51.712025     -130.760712      -45.692616
 C         -48.340004     -132.307861      -43.349503
 C         -48.915249     -133.683914      -43.091599
 C         -48.341915     -131.350250      -42.214348
 C         -48.428013     -134.288391      -41.768085
 C         -47.862183     -132.057327      -40.971527
 C         -48.604870     -133.322021      -40.542274
 H         -48.580650     -134.379684      -43.931435
 H         -49.977478     -133.600861      -42.990986
 H         -47.740273     -130.602020      -42.554020
 H         -49.401905     -131.068527      -42.123993
 H         -47.353577     -134.524155      -41.858742
 H         -48.911610     -135.179352      -41.402229
 H         -47.845253     -131.289413      -40.165222
 H         -46.829681     -132.228210      -40.969105
 H         -48.078602     -133.689560      -39.686302
 H         -49.672436     -132.932938      -40.431774
