20
 generated by VMD
 C         -48.517330     -135.800034      -46.206264
 N         -47.672478     -136.175415      -45.460346
 H         -52.032799     -135.104584      -46.014385
 H         -49.434849     -135.460770      -46.735313
 C         -51.650536     -136.006882      -45.425289
 C         -52.442612     -137.174194      -45.663990
 C         -51.186539     -135.740585      -43.952633
 C         -51.721931     -138.432816      -45.249859
 C         -50.553242     -137.033615      -43.380230
 C         -51.327751     -138.253738      -43.747330
 H         -52.585152     -137.270157      -46.744301
 H         -53.397629     -136.905792      -45.217598
 H         -50.465275     -134.973007      -43.972618
 H         -52.087341     -135.472168      -43.389545
 H         -50.714142     -138.625809      -45.753063
 H         -52.337051     -139.313812      -45.483376
 H         -50.572685     -137.002136      -42.215851
 H         -49.459862     -137.048309      -43.653198
 H         -50.779556     -139.038300      -43.424904
 H         -52.084187     -138.512146      -42.977856
