20
 generated by VMD
 C         -63.941086     -175.023285      -55.929123
 N         -63.025257     -175.376266      -56.549786
 H         -65.987534     -173.551407      -58.600891
 H         -64.768166     -174.738174      -55.319675
 C         -65.376503     -172.780823      -58.909073
 C         -65.637344     -171.503235      -58.263527
 C         -64.476707     -173.087173      -60.030918
 C         -64.429802     -170.517609      -58.185265
 C         -63.152058     -172.414017      -59.708519
 C         -63.530987     -170.781616      -59.515366
 H         -65.906395     -171.647232      -57.156864
 H         -66.478889     -170.978867      -58.766388
 H         -64.420982     -174.179092      -59.947254
 H         -64.987007     -172.764587      -61.009686
 H         -63.706833     -170.840546      -57.334572
 H         -64.706024     -169.412186      -58.019848
 H         -62.423317     -172.422699      -60.514042
 H         -62.693115     -172.854263      -58.856453
 H         -62.588425     -170.177734      -59.431145
 H         -64.060318     -170.369766      -60.370644
