20
 generated by VMD
 C         -56.474751     -150.122513      -47.666924
 N         -57.629192     -150.347321      -47.759430
 H         -53.147861     -148.025574      -47.477936
 H         -55.447582     -149.957840      -47.568333
 C         -53.720711     -147.884811      -48.440891
 C         -53.040638     -148.460144      -49.633381
 C         -54.451073     -146.584793      -48.592861
 C         -54.189556     -148.690353      -50.652203
 C         -55.511421     -146.831070      -49.644840
 C         -54.949024     -147.438950      -50.897034
 H         -52.525501     -149.346893      -49.517082
 H         -52.307098     -147.823792      -50.172600
 H         -54.964081     -146.564697      -47.616657
 H         -53.740776     -145.799454      -48.774734
 H         -54.882759     -149.504364      -50.517086
 H         -53.670528     -148.945312      -51.601124
 H         -55.921516     -145.732620      -49.924847
 H         -56.341682     -147.440781      -49.334000
 H         -55.736012     -147.629776      -51.668255
 H         -54.302448     -146.724609      -51.433727
