20
 generated by VMD
 C         -30.445456      -74.524254      -21.048218
 N         -30.890970      -75.468681      -20.574760
 H         -27.218113      -74.753868      -19.368856
 H         -29.871675      -73.641411      -21.454323
 C         -26.848684      -74.588844      -20.340681
 C         -26.461847      -75.833107      -21.178162
 C         -25.954836      -73.330437      -20.402939
 C         -25.976440      -75.426575      -22.657257
 C         -25.552437      -73.005600      -21.791998
 C         -25.032356      -74.165802      -22.617769
 H         -27.343983      -76.606979      -21.288694
 H         -25.788244      -76.488396      -20.625261
 H         -26.417681      -72.362457      -20.092049
 H         -25.007788      -73.515839      -19.670105
 H         -26.817490      -75.199295      -23.300386
 H         -25.471664      -76.294548      -23.029619
 H         -24.665319      -72.354706      -21.726112
 H         -26.375824      -72.563538      -22.368546
 H         -24.732237      -73.944252      -23.648645
 H         -24.145172      -74.420708      -22.006899
