20
 generated by VMD
 C         -12.154102      -31.781801       -8.716304
 N         -12.867124      -31.746185       -9.550729
 H         -10.439951      -34.542778       -7.096696
 H         -11.236696      -33.647320       -5.730451
 C         -11.100401      -34.668827       -6.194468
 C         -10.451302      -35.641945       -5.187395
 C         -12.375338      -35.256229       -6.690917
 C         -11.471106      -36.251678       -4.116207
 C         -13.402580      -35.713207       -5.686190
 C         -12.785578      -36.722759       -4.762007
 H          -9.543803      -35.225319       -4.698565
 H         -10.006487      -36.545593       -5.663336
 H         -12.803934      -34.562553       -7.430863
 H         -12.230494      -36.152206       -7.275311
 H         -11.706371      -35.413460       -3.411467
 H         -11.027954      -36.944889       -3.389919
 H         -14.292413      -35.992962       -6.153504
 H         -13.737990      -34.798420       -5.067547
 H         -13.526901      -37.052444       -4.006032
 H         -12.519870      -37.544300       -5.387866
