20
 generated by VMD
 C         -46.507812     -124.425575      -36.330036
 N         -46.992035     -125.261292      -35.688625
 H         -44.663292     -121.820503      -38.019253
 H         -46.110249     -123.774673      -37.158508
 C         -44.579472     -121.718613      -39.052326
 C         -43.321510     -121.753510      -39.771660
 C         -45.714836     -120.907928      -39.534653
 C         -43.518845     -121.871391      -41.270847
 C         -45.962372     -121.202087      -41.045155
 C         -44.643185     -121.079849      -41.888355
 H         -42.519196     -122.303291      -39.260502
 H         -42.871563     -120.725243      -39.757530
 H         -46.498119     -121.268654      -38.891361
 H         -45.520256     -119.785431      -39.331615
 H         -43.758991     -122.892975      -41.398815
 H         -42.639374     -121.911781      -41.923363
 H         -46.824039     -120.605263      -41.425571
 H         -46.179485     -122.188293      -41.046036
 H         -44.794456     -121.394455      -42.974468
 H         -44.420910     -120.051628      -41.794842
