20
 generated by VMD
 C         -31.086823      -74.847748      -21.860220
 N         -31.450796      -75.937149      -21.764725
 H         -28.456772      -76.675064      -20.666960
 H         -30.686134      -73.853477      -22.277679
 C         -27.667156      -76.273338      -21.289881
 C         -26.753279      -77.292175      -21.986666
 C         -27.003532      -75.057526      -20.601345
 C         -25.754381      -76.565506      -22.928297
 C         -26.013792      -74.343788      -21.636461
 C         -25.024853      -75.408760      -22.162909
 H         -27.285484      -78.034042      -22.408319
 H         -26.045162      -77.776863      -21.319063
 H         -27.811493      -74.360474      -20.249590
 H         -26.429312      -75.378387      -19.761290
 H         -26.320017      -76.203514      -23.764738
 H         -25.020878      -77.286430      -23.282848
 H         -25.383183      -73.649773      -21.134403
 H         -26.440292      -73.906807      -22.459042
 H         -24.307867      -74.893867      -22.810980
 H         -24.292240      -75.770882      -21.453539
