20
 generated by VMD
 C         -22.424023      -52.276508      -11.531270
 N         -22.102234      -52.732841      -10.564129
 H         -19.873644      -52.613708      -14.317349
 H         -22.387520      -51.644276      -12.550098
 C         -18.822693      -52.362366      -13.922370
 C         -17.832529      -51.650723      -14.819569
 C         -18.540260      -52.534573      -12.492362
 C         -16.473862      -52.129726      -14.599275
 C         -17.247299      -51.851715      -12.070644
 C         -16.126892      -52.189491      -13.129226
 H         -17.838364      -50.523632      -14.538145
 H         -18.159641      -51.659088      -15.869952
 H         -19.337730      -52.126148      -11.876798
 H         -18.501863      -53.621971      -12.280140
 H         -15.802023      -51.524479      -15.181138
 H         -16.484459      -53.125645      -15.003026
 H         -17.014788      -52.168190      -11.000254
 H         -17.384876      -50.758026      -12.031623
 H         -15.252743      -51.530956      -13.021709
 H         -15.893367      -53.245518      -12.920427
