20
 generated by VMD
 C         -62.594872     -172.210022      -55.114727
 N         -61.690491     -172.976166      -55.315788
 H         -61.612526     -171.088745      -58.503918
 H         -63.426250     -171.600998      -54.779007
 C         -62.490223     -170.411041      -58.351559
 C         -62.315624     -168.934311      -58.046307
 C         -63.842842     -171.141113      -58.439735
 C         -63.622353     -168.081375      -58.200645
 C         -64.999695     -170.291885      -58.599216
 C         -64.825912     -168.912888      -57.998146
 H         -61.590801     -168.598312      -58.685097
 H         -61.889500     -168.759216      -56.951618
 H         -63.826687     -171.857254      -59.230885
 H         -64.118210     -171.675766      -57.566204
 H         -63.527458     -167.765625      -59.252224
 H         -63.605885     -167.129639      -57.702839
 H         -65.971405     -170.737549      -58.271122
 H         -65.233345     -170.071899      -59.734013
 H         -65.567955     -168.303711      -58.425369
 H         -65.100647     -169.091888      -56.921455
