20
 generated by VMD
 C         -40.759956     -100.114784      -29.942223
 N         -40.579746     -100.303795      -28.801905
 H         -37.291382      -99.152519      -30.539532
 H         -40.793449     -100.011246      -30.996340
 C         -36.399246      -99.664963      -30.806696
 C         -35.978600      -99.634705      -32.308079
 C         -35.344620      -99.623672      -29.785217
 C         -34.966118      -98.528198      -32.431522
 C         -34.309814      -98.447960      -30.020605
 C         -33.808228      -98.491081      -31.395971
 H         -36.777588      -99.503868      -33.024094
 H         -35.560413     -100.615578      -32.602921
 H         -35.796646      -99.573875      -28.821926
 H         -34.827324     -100.580345      -29.766609
 H         -35.526966      -97.598114      -32.219299
 H         -34.637726      -98.418213      -33.470036
 H         -33.469948      -98.469933      -29.298916
 H         -34.752071      -97.487099      -29.768362
 H         -33.227383      -97.686958      -31.713587
 H         -33.130886      -99.393875      -31.492395
