20
 generated by VMD
 C         -38.753136      -99.070824      -27.186026
 N         -37.804218      -99.257782      -26.535223
 H         -37.156303      -97.198509      -30.277987
 H         -39.768383      -98.893272      -27.593081
 C         -36.200100      -96.953499      -30.533953
 C         -35.591572      -97.471420      -31.820179
 C         -35.289551      -96.427216      -29.496319
 C         -34.241772      -96.943863      -32.217602
 C         -34.270943      -95.456375      -30.031965
 C         -33.459805      -96.171822      -31.184717
 H         -36.301910      -97.195251      -32.626232
 H         -35.475052      -98.560822      -31.776192
 H         -35.765491      -95.939484      -28.610680
 H         -34.838402      -97.318420      -29.014067
 H         -34.281963      -96.322426      -33.136345
 H         -33.588711      -97.737335      -32.622364
 H         -33.757130      -94.943474      -29.205940
 H         -34.853069      -94.652634      -30.442392
 H         -32.732185      -95.576820      -31.696922
 H         -32.769073      -97.015411      -30.695312
