20
 generated by VMD
 C         -76.619492     -203.160126      -66.661880
 N         -77.348663     -203.625381      -65.879211
 H         -75.637177     -200.567963      -69.092751
 H         -75.818825     -202.671341      -67.139847
 C         -74.754829     -199.931747      -68.996323
 C         -74.846741     -198.443268      -68.642868
 C         -73.578011     -200.376480      -69.776123
 C         -73.452827     -197.682297      -68.798180
 C         -73.287086     -199.345413      -70.863029
 C         -72.752151     -198.101501      -70.128456
 H         -75.236443     -198.350967      -67.550911
 H         -75.668938     -197.985626      -69.312164
 H         -72.608177     -200.502075      -69.135178
 H         -73.985977     -201.306244      -70.182144
 H         -72.863960     -198.161957      -67.992493
 H         -73.328056     -196.606079      -68.614456
 H         -74.225952     -198.990509      -71.371155
 H         -72.574280     -199.751404      -71.585754
 H         -71.679771     -198.205780      -69.942421
 H         -72.796295     -197.405273      -70.926697
