20
 generated by VMD
 C         -19.403915      -60.530487      -17.915268
 N         -19.968725      -59.532711      -17.855589
 H         -22.905350      -59.860573      -16.132895
 H         -18.794260      -61.537716      -17.730478
 C         -23.183229      -60.880669      -16.053755
 C         -23.410677      -61.625229      -17.344805
 C         -23.358540      -61.678616      -14.823400
 C         -22.643213      -62.946880      -17.341772
 C         -23.142485      -63.254444      -14.790946
 C         -23.133984      -63.853958      -16.203125
 H         -23.274103      -61.002796      -18.199749
 H         -24.436605      -61.780376      -17.502163
 H         -22.881922      -61.160404      -14.002889
 H         -24.458544      -61.728073      -14.625873
 H         -21.534990      -62.729794      -17.119658
 H         -22.558794      -63.464436      -18.344427
 H         -24.023420      -63.705479      -14.330467
 H         -22.171291      -63.386269      -14.287548
 H         -22.537283      -64.713501      -16.185511
 H         -24.078812      -64.232162      -16.580254
