20
 generated by VMD
 C         -55.240528     -148.678375      -45.228775
 N         -54.650311     -148.939880      -44.270897
 H         -54.334587     -148.127991      -48.707481
 H         -55.938374     -148.394485      -46.042465
 C         -54.326080     -147.124420      -49.164143
 C         -53.147507     -146.966766      -50.114449
 C         -55.041592     -145.980011      -48.571785
 C         -53.410767     -145.802444      -50.902412
 C         -55.135498     -144.841675      -49.612499
 C         -53.811008     -144.575516      -50.263805
 H         -53.118156     -147.772675      -50.821140
 H         -52.314026     -146.926025      -49.441849
 H         -55.971077     -146.369492      -48.281898
 H         -54.569786     -145.673233      -47.642952
 H         -54.073166     -146.079086      -51.696205
 H         -52.525631     -145.744354      -51.508942
 H         -55.294617     -143.942749      -49.041061
 H         -55.913731     -144.896088      -50.310200
 H         -53.953465     -143.728012      -50.940506
 H         -53.016403     -144.099884      -49.751369
