20
 generated by VMD
 C         -65.198608     -176.072937      -55.879295
 N         -65.135094     -177.228958      -55.635754
 H         -64.882851     -174.718063      -59.206768
 H         -65.331123     -175.034607      -56.107964
 C         -64.529648     -173.666794      -59.343735
 C         -65.246536     -172.611877      -58.473301
 C         -63.779579     -173.248138      -60.619251
 C         -64.597275     -171.262878      -58.628754
 C         -63.048439     -171.851913      -60.448200
 C         -64.069519     -170.933548      -59.949306
 H         -65.341988     -172.975769      -57.530312
 H         -66.334305     -172.584671      -58.895988
 H         -62.976978     -173.963593      -60.851643
 H         -64.457977     -173.029541      -61.358906
 H         -63.641644     -171.243744      -57.989830
 H         -65.320190     -170.528702      -58.183475
 H         -62.715809     -171.517807      -61.441200
 H         -62.198597     -171.935349      -59.788815
 H         -63.643173     -169.934937      -60.031551
 H         -64.861633     -171.033875      -60.657612
