20
 generated by VMD
 C         -31.033051      -74.975967      -21.678469
 N         -31.751703      -75.912796      -21.739656
 H         -28.372738      -76.217636      -20.565502
 H         -30.581696      -74.171959      -21.061262
 C         -27.503305      -75.974434      -21.218779
 C         -26.728447      -77.063461      -21.887396
 C         -26.781921      -74.835754      -20.640041
 C         -25.742392      -76.460213      -22.906816
 C         -25.830471      -74.220848      -21.691517
 C         -24.941446      -75.331429      -22.172142
 H         -27.441223      -77.603264      -22.435083
 H         -26.167463      -77.658554      -21.178120
 H         -27.628325      -74.069313      -20.347830
 H         -26.330523      -75.106194      -19.651743
 H         -26.124357      -76.000031      -23.815159
 H         -25.072916      -77.228096      -23.252506
 H         -25.237734      -73.528778      -21.149914
 H         -26.402575      -73.720474      -22.418579
 H         -24.390499      -74.898857      -22.995222
 H         -24.376801      -75.684258      -21.273495
