20
 generated by VMD
 C         -50.420685     -145.127029      -45.185436
 N         -50.184216     -145.143265      -44.025692
 H         -52.973236     -143.306046      -45.870544
 H         -50.405094     -145.095032      -46.245686
 C         -53.486629     -143.061920      -46.802525
 C         -52.580597     -143.139267      -48.066109
 C         -54.687614     -142.229660      -46.911274
 C         -53.389046     -143.200714      -49.418648
 C         -55.390396     -142.411423      -48.279930
 C         -54.494499     -142.245132      -49.476738
 H         -51.851143     -143.906586      -48.180580
 H         -51.888882     -142.236786      -48.000832
 H         -55.499020     -142.577499      -46.244350
 H         -54.372849     -141.181091      -46.927921
 H         -53.680046     -144.273514      -49.514992
 H         -52.797199     -142.913116      -50.283901
 H         -56.293655     -141.811417      -48.276299
 H         -55.838306     -143.413025      -48.302193
 H         -55.054935     -142.237991      -50.461288
 H         -54.161674     -141.202011      -49.442875
