20
 generated by VMD
 C         -12.459654      -30.965902       -8.432051
 N         -12.012903      -30.489195       -7.526711
 H         -11.765171      -34.286224       -7.715490
 H         -12.803917      -33.693291       -6.455503
 C         -11.941086      -34.289330       -6.662335
 C         -10.660323      -33.651524       -6.021857
 C         -12.149199      -35.732201       -6.149485
 C         -10.783240      -33.583355       -4.500917
 C         -12.311031      -35.654598       -4.589465
 C         -11.153461      -34.870243       -3.813642
 H         -10.571860      -32.603413       -6.363464
 H          -9.748345      -34.236790       -6.263124
 H         -13.062657      -36.029171       -6.678411
 H         -11.315290      -36.340908       -6.476033
 H         -11.568026      -32.848526       -4.188866
 H          -9.757642      -33.286716       -4.134475
 H         -12.318817      -36.751991       -4.172259
 H         -13.215708      -35.180622       -4.276121
 H         -11.438624      -34.758247       -2.724811
 H         -10.254577      -35.493580       -3.814351
