20
 generated by VMD
 C         -45.246269     -123.028427      -35.444740
 N         -45.681690     -124.096054      -35.192001
 H         -44.935547     -122.292282      -38.161831
 H         -44.583065     -122.100479      -35.531612
 C         -44.777641     -121.633644      -39.076054
 C         -43.431881     -121.406860      -39.653477
 C         -45.991085     -120.762062      -39.572746
 C         -43.425060     -120.801727      -41.027443
 C         -45.738735     -120.157417      -40.910671
 C         -44.363670     -119.605324      -41.157471
 H         -42.840374     -122.349861      -39.600037
 H         -42.940414     -120.516586      -39.159191
 H         -46.956402     -121.246788      -39.714577
 H         -46.082966     -120.042816      -38.818344
 H         -43.897743     -121.640411      -41.686916
 H         -42.411495     -120.548264      -41.291283
 H         -46.480194     -119.248970      -41.052639
 H         -45.821716     -120.888542      -41.755871
 H         -44.238045     -119.171387      -42.136723
 H         -44.068569     -118.763870      -40.509026
