20
 generated by VMD
 C         -68.332962     -195.127869      -65.257713
 N         -68.829079     -195.740280      -64.393181
 H         -71.494247     -194.732193      -66.773453
 H         -67.989639     -194.374115      -66.006096
 C         -72.091690     -193.878891      -67.131516
 C         -71.903625     -192.537384      -66.611847
 C         -73.421562     -194.233887      -67.765610
 C         -73.168694     -191.915848      -66.058243
 C         -74.593048     -193.807190      -66.912704
 C         -74.542229     -192.354172      -66.518875
 H         -71.418877     -191.963364      -67.303261
 H         -71.057190     -192.538361      -65.819313
 H         -73.491707     -193.918930      -68.728683
 H         -73.440887     -195.286438      -67.929024
 H         -73.061180     -190.769241      -66.197197
 H         -73.075317     -192.016647      -64.965782
 H         -74.501183     -194.362228      -65.987350
 H         -75.592278     -194.082657      -67.395676
 H         -74.816536     -191.696136      -67.392120
 H         -75.361626     -192.120590      -65.663963
