20
 generated by VMD
 C         -69.698257     -183.207901      -65.280144
 N         -70.110916     -182.397049      -66.006447
 H         -67.998085     -184.743607      -62.936028
 H         -69.295204     -183.938843      -64.518806
 C         -67.734978     -183.978668      -62.226421
 C         -67.919380     -184.295334      -60.725914
 C         -67.740234     -182.535965      -62.613956
 C         -67.110977     -183.445862      -59.798298
 C         -67.093559     -181.631348      -61.615833
 C         -67.340698     -181.993362      -60.205475
 H         -67.752525     -185.384308      -60.730076
 H         -69.033707     -184.372971      -60.542801
 H         -67.114525     -182.369751      -63.596310
 H         -68.722618     -182.099411      -62.695869
 H         -66.096855     -183.641159      -60.037178
 H         -67.217735     -183.567978      -58.692360
 H         -67.506958     -180.638626      -61.899895
 H         -65.949707     -181.612640      -61.713364
 H         -66.618500     -181.532501      -59.508945
 H         -68.245697     -181.638245      -59.801483
