20
 generated by VMD
 C         -20.509611      -64.456635      -17.126783
 N         -19.884783      -64.755554      -16.192640
 H         -23.593384      -63.602890      -17.765743
 H         -20.986309      -64.516785      -18.048084
 C         -24.227600      -64.515282      -17.977623
 C         -24.915768      -64.687721      -19.344208
 C         -24.953388      -65.285889      -16.863485
 C         -24.688900      -66.148941      -19.786032
 C         -24.963530      -66.795296      -17.284651
 C         -25.123711      -67.242973      -18.705721
 H         -24.432169      -64.192711      -20.122721
 H         -25.940960      -64.260040      -19.176722
 H         -24.353325      -65.179855      -15.917714
 H         -25.990643      -64.913872      -16.906504
 H         -23.642529      -66.451286      -19.983160
 H         -25.233553      -66.498894      -20.707289
 H         -25.763903      -67.271294      -16.699825
 H         -24.010105      -67.281273      -16.912312
 H         -24.733931      -68.215698      -18.941465
 H         -26.235188      -67.284409      -18.944824
