20
 generated by VMD
 C         -40.178135      -99.597061      -28.945354
 N         -39.421997     -100.105766      -28.199249
 H         -37.534901      -98.295456      -30.528463
 H         -41.059265      -99.315666      -29.522717
 C         -36.428631      -98.546997      -30.744762
 C         -35.798603      -98.996292      -32.094364
 C         -35.465145      -98.391022      -29.698687
 C         -34.628479      -98.012596      -32.336613
 C         -34.266209      -97.551956      -29.968185
 C         -33.664433      -97.786545      -31.299656
 H         -36.579067      -98.793762      -32.766575
 H         -35.456757     -100.080208      -32.190804
 H         -35.902134      -97.859459      -28.903585
 H         -35.211288      -99.395645      -29.328606
 H         -35.191265      -97.075951      -32.553604
 H         -34.201500      -98.330246      -33.219978
 H         -33.623989      -97.610985      -29.107683
 H         -34.478630      -96.418335      -29.952942
 H         -33.120335      -96.842796      -31.630358
 H         -32.939129      -98.525665      -31.378531
