20
 generated by VMD
 C         -11.820462      -25.778873       -0.872993
 N         -12.089571      -25.288471        0.078977
 H          -8.155223      -26.523376       -1.444006
 H          -9.188146      -25.816942       -2.657587
 C          -8.150656      -25.932564       -2.361453
 C          -7.396190      -26.687841       -3.493420
 C          -7.574815      -24.463354       -2.141250
 C          -7.276882      -25.924858       -4.779983
 C          -7.441176      -23.716417       -3.507290
 C          -6.617842      -24.532787       -4.541245
 H          -7.865646      -27.614630       -3.727602
 H          -6.431155      -26.802938       -3.057241
 H          -8.110161      -23.901115       -1.401220
 H          -6.534153      -24.589861       -1.766255
 H          -8.237538      -25.678558       -5.173521
 H          -6.678242      -26.526823       -5.457798
 H          -6.959630      -22.744246       -3.375723
 H          -8.456186      -23.581501       -3.839480
 H          -6.479081      -24.000713       -5.486893
 H          -5.670753      -24.683620       -3.957792
