20
 generated by VMD
 C         -38.706547     -113.526939      -36.018902
 N         -37.572170     -113.853058      -35.986706
 H         -41.442913     -115.147743      -35.444092
 H         -39.625217     -113.038986      -36.117130
 C         -42.268837     -114.578926      -35.915428
 C         -42.298080     -114.399399      -37.382309
 C         -43.480114     -114.200470      -35.133999
 C         -43.453583     -115.243423      -37.890030
 C         -44.671635     -114.937485      -35.667397
 C         -44.799740     -114.846252      -37.241734
 H         -41.443966     -114.897659      -37.850601
 H         -42.446999     -113.416542      -37.876408
 H         -43.328072     -114.577820      -34.125580
 H         -43.438435     -113.125565      -35.032887
 H         -43.196484     -116.274162      -37.605881
 H         -43.531574     -115.225548      -39.019905
 H         -45.547699     -114.523590      -35.081135
 H         -44.692734     -116.060738      -35.431904
 H         -45.562645     -115.533188      -37.561970
 H         -44.933975     -113.738182      -37.596634
