20
 generated by VMD
 C         -69.045364     -195.729630      -64.836220
 N         -68.596466     -196.775040      -65.169601
 H         -71.998230     -194.421265      -65.707504
 H         -69.772827     -195.004425      -64.597092
 C         -72.167458     -193.931091      -66.657845
 C         -72.192917     -192.428223      -66.708664
 C         -73.128754     -194.643829      -67.551849
 C         -73.599136     -191.924759      -66.407463
 C         -74.503929     -194.185455      -67.068039
 C         -74.622185     -192.718567      -67.233711
 H         -71.970055     -192.152985      -67.763680
 H         -71.385315     -192.096649      -65.919754
 H         -72.728134     -194.332886      -68.602188
 H         -72.977837     -195.814301      -67.330208
 H         -73.542175     -190.915466      -66.771072
 H         -73.954643     -191.993118      -65.421310
 H         -74.696129     -194.518204      -66.068047
 H         -75.290871     -194.660034      -67.706787
 H         -74.510422     -192.363998      -68.335426
 H         -75.547516     -192.468414      -66.878258
