20
 generated by VMD
 C         -50.529655     -145.074768      -45.066090
 N         -50.633701     -145.711716      -44.140408
 H         -53.382027     -144.237411      -46.337204
 H         -50.573074     -144.397369      -45.932716
 C         -53.514637     -143.419617      -47.024117
 C         -52.562637     -143.263382      -48.145905
 C         -54.760670     -142.467239      -47.039345
 C         -53.354763     -143.458542      -49.504757
 C         -55.419472     -142.559021      -48.389317
 C         -54.510517     -142.432541      -49.524208
 H         -51.903580     -144.140030      -48.156467
 H         -51.972824     -142.267075      -48.077274
 H         -55.454384     -142.672562      -46.215042
 H         -54.427242     -141.487213      -46.942734
 H         -53.764992     -144.534073      -49.653927
 H         -52.878265     -143.242538      -50.469414
 H         -56.115009     -141.681747      -48.430420
 H         -56.085480     -143.383820      -48.648830
 H         -55.110287     -142.575256      -50.493832
 H         -53.900764     -141.528610      -49.616028
