20
 generated by VMD
 C         -31.312099      -77.098579      -24.938169
 N         -32.092266      -77.061798      -25.841362
 H         -29.295912      -77.098343      -22.477772
 H         -30.363344      -77.130928      -24.307329
 C         -28.536133      -77.762245      -22.180977
 C         -27.452328      -78.038269      -23.164305
 C         -28.853622      -78.857864      -21.238447
 C         -26.188126      -78.629944      -22.568712
 C         -27.584732      -79.406158      -20.686539
 C         -26.571671      -79.833275      -21.767683
 H         -27.237915      -77.163200      -23.853888
 H         -27.954880      -78.691978      -23.956316
 H         -29.561779      -78.584526      -20.360670
 H         -29.452011      -79.678818      -21.685123
 H         -25.817904      -77.817230      -21.940384
 H         -25.446760      -79.030739      -23.299221
 H         -27.929300      -80.382103      -20.143333
 H         -27.222939      -78.623299      -19.916128
 H         -25.821001      -80.403786      -21.263865
 H         -27.118011      -80.546196      -22.422016
