20
 generated by VMD
 C         -70.488037     -182.203995      -63.743107
 N         -69.488678     -182.716019      -64.120041
 H         -68.526505     -180.515137      -62.315422
 H         -71.457764     -181.752029      -63.479996
 C         -67.900917     -180.535507      -61.462360
 C         -67.407021     -181.890076      -61.055679
 C         -67.331635     -179.401489      -60.657677
 C         -65.872429     -181.978226      -60.942741
 C         -65.686104     -179.432587      -60.750259
 C         -65.158951     -180.766846      -60.149841
 H         -67.655251     -182.632690      -61.802082
 H         -67.827568     -182.477631      -60.214489
 H         -67.783394     -178.591385      -61.075531
 H         -67.660553     -179.329758      -59.599438
 H         -65.477737     -181.873886      -61.935314
 H         -65.524765     -182.843353      -60.406078
 H         -65.420227     -178.622803      -60.060081
 H         -65.294960     -179.312790      -61.812599
 H         -64.103554     -180.803619      -60.243980
 H         -65.494400     -181.035233      -59.065231
