20
 generated by VMD
 C         -72.824272     -198.710709      -65.662865
 N         -73.776276     -199.138596      -66.157585
 H         -70.944321     -196.426346      -67.407059
 H         -71.826065     -198.334869      -65.345978
 C         -71.965881     -196.290268      -67.724770
 C         -73.007401     -195.632095      -66.920723
 C         -72.412811     -196.970520      -69.029480
 C         -74.263260     -195.293808      -67.704910
 C         -73.901550     -197.324768      -69.139336
 C         -74.896446     -196.633743      -68.258011
 H         -72.512970     -194.728012      -66.508636
 H         -73.289566     -196.141998      -65.902641
 H         -72.178154     -196.362534      -69.877441
 H         -71.934959     -197.915161      -69.051933
 H         -74.095322     -194.581863      -68.501091
 H         -75.065796     -194.897125      -67.088509
 H         -73.985893     -198.400604      -68.872765
 H         -74.260223     -197.382019      -70.165878
 H         -75.728172     -196.322235      -68.814331
 H         -75.466675     -197.236145      -67.378166
