20
 generated by VMD
 C         -10.395638      -33.120575       -8.985851
 N         -11.188697      -33.777493       -9.361718
 H         -12.969580      -34.014496       -6.292516
 H         -13.070903      -34.655941       -4.589712
 C         -13.029475      -34.858612       -5.695765
 C         -11.671634      -35.490715       -5.925791
 C         -14.210899      -35.727684       -6.087713
 C         -11.612509      -37.001400       -5.531863
 C         -14.155599      -37.268066       -5.815899
 C         -12.748324      -37.757565       -6.197578
 H         -10.810631      -34.869312       -5.490767
 H         -11.541037      -35.527786       -7.031812
 H         -15.140265      -35.433002       -5.572505
 H         -14.315354      -35.617992       -7.155129
 H         -11.674424      -37.048031       -4.403499
 H         -10.641777      -37.338249       -5.899487
 H         -14.958394      -37.792244       -6.313634
 H         -14.252725      -37.413021       -4.658947
 H         -12.749238      -38.808590       -5.851046
 H         -12.620179      -37.754707       -7.253639
