20
 generated by VMD
 C         -23.226711      -53.883060      -14.788650
 N         -24.215425      -53.365604      -15.108566
 H         -20.509718      -54.934940      -15.014927
 H         -22.147818      -54.149975      -14.661073
 C         -19.632524      -55.283749      -14.606936
 C         -18.998802      -54.334106      -13.616022
 C         -18.899792      -56.513012      -14.943733
 C         -18.393105      -55.001488      -12.407207
 C         -17.935513      -56.995560      -13.759201
 C         -17.280998      -55.845371      -13.036888
 H         -19.842840      -53.642136      -13.313660
 H         -18.167830      -53.853485      -14.170898
 H         -19.636089      -57.282627      -15.144103
 H         -18.325607      -56.462132      -15.836454
 H         -19.073620      -55.700825      -11.868717
 H         -17.994003      -54.237823      -11.744005
 H         -17.173378      -57.650337      -14.166838
 H         -18.564232      -57.615234      -13.058554
 H         -16.615479      -56.209469      -12.258564
 H         -16.676645      -55.328735      -13.732202
