20
 generated by VMD
 C         -12.136286      -31.525770       -8.880479
 N         -12.844784      -31.909456       -9.635253
 H         -10.462193      -34.380093       -6.766309
 H         -11.357914      -33.889034       -5.465594
 C         -11.138121      -34.772926       -6.046505
 C         -10.498261      -35.812435       -5.159488
 C         -12.408336      -35.235256       -6.747939
 C         -11.540028      -36.278549       -4.174055
 C         -13.392486      -35.797726       -5.683417
 C         -12.788568      -36.840843       -4.784922
 H          -9.610998      -35.421494       -4.645712
 H         -10.162020      -36.691311       -5.710083
 H         -12.861022      -34.432983       -7.320197
 H         -12.362624      -36.053555       -7.474143
 H         -11.767580      -35.554203       -3.419720
 H         -11.055334      -37.062168       -3.581731
 H         -14.366392      -36.142178       -6.161247
 H         -13.716465      -35.012001       -5.068398
 H         -13.496380      -37.135708       -3.962786
 H         -12.539400      -37.761421       -5.391114
