20
 generated by VMD
 C         -70.113564     -182.859985      -65.945374
 N         -71.134743     -183.377655      -65.640236
 H         -67.596588     -182.690002      -63.120926
 H         -69.160980     -182.458679      -66.305519
 C         -67.537971     -182.374207      -62.095768
 C         -67.666145     -183.393906      -60.988899
 C         -66.958252     -180.939056      -61.850235
 C         -66.649040     -183.076416      -59.915855
 C         -66.198486     -180.716354      -60.569832
 C         -66.645363     -181.655243      -59.520576
 H         -67.552208     -184.476730      -61.379436
 H         -68.701698     -183.399048      -60.602097
 H         -66.461296     -180.666168      -62.784115
 H         -67.768044     -180.191544      -61.847973
 H         -65.612152     -183.290344      -60.221851
 H         -66.994896     -183.602997      -59.080868
 H         -66.412857     -179.696854      -60.287033
 H         -65.083740     -180.781097      -60.620167
 H         -66.035057     -181.514328      -58.653858
 H         -67.571358     -181.244415      -59.139179
