20
 generated by VMD
 C         -50.208244     -131.966766      -46.790432
 N         -49.952736     -132.500671      -47.835819
 H         -47.953323     -132.138107      -43.855610
 H         -50.302750     -131.455444      -45.829300
 C         -48.670254     -132.642624      -43.256668
 C         -49.517876     -133.694458      -43.776093
 C         -48.798969     -132.325027      -41.749752
 C         -49.340256     -135.013123      -42.910702
 C         -48.614719     -133.580521      -40.897514
 C         -49.530903     -134.716568      -41.400337
 H         -49.178505     -134.035278      -44.834461
 H         -50.567379     -133.549332      -43.783722
 H         -48.074123     -131.469650      -41.556171
 H         -49.745926     -131.935852      -41.451221
 H         -48.388451     -135.537033      -43.091137
 H         -50.170853     -135.663605      -43.180893
 H         -48.818493     -133.414764      -39.859776
 H         -47.516895     -133.792572      -41.130291
 H         -49.146320     -135.579575      -40.793438
 H         -50.577953     -134.622345      -41.008282
