20
 generated by VMD
 C          -9.270921      -24.261118        1.576521
 N          -9.431989      -25.260324        2.063111
 H          -7.534933      -23.243492       -0.757806
 H          -8.731282      -22.705919       -1.682948
 C          -7.686631      -23.018290       -1.797657
 C          -7.515446      -24.254951       -2.622834
 C          -6.712405      -21.913269       -2.289630
 C          -7.751759      -23.971283       -4.081361
 C          -6.984151      -21.544258       -3.769046
 C          -6.938568      -22.810926       -4.632454
 H          -8.280911      -24.957340       -2.302748
 H          -6.496754      -24.775049       -2.506402
 H          -6.888701      -20.976318       -1.758345
 H          -5.657259      -22.242079       -2.204566
 H          -8.804961      -23.771339       -4.245090
 H          -7.457452      -24.886101       -4.534180
 H          -6.144477      -20.946646       -4.134889
 H          -7.900028      -20.979645       -3.836289
 H          -7.422588      -22.576752       -5.616237
 H          -5.870596      -23.059061       -4.803366
