20
 generated by VMD
 C         -67.603127     -179.699722      -58.537216
 N         -68.207558     -179.801422      -59.511696
 H         -67.320244     -176.796951      -59.997162
 H         -66.965805     -179.539337      -57.692535
 C         -66.367760     -176.507874      -60.211830
 C         -66.136276     -175.771515      -61.410923
 C         -65.306000     -176.962738      -59.237255
 C         -64.949203     -174.808746      -61.257755
 C         -64.074471     -176.006149      -59.155174
 C         -63.762535     -175.305634      -60.441051
 H         -66.962219     -175.112823      -61.616875
 H         -65.948830     -176.453400      -62.274490
 H         -65.796303     -177.133835      -58.286404
 H         -65.122307     -177.953156      -59.620316
 H         -65.435539     -174.127777      -60.593170
 H         -64.550262     -174.390488      -62.095043
 H         -63.247437     -176.627655      -58.839352
 H         -64.211029     -175.283554      -58.333164
 H         -63.183029     -174.400040      -60.444653
 H         -63.317581     -176.083847      -61.085434
