20
 generated by VMD
 C         -22.429476      -67.713844      -16.201864
 N         -21.310452      -67.646736      -15.928979
 H         -24.018829      -65.945480      -17.806538
 H         -23.412533      -67.760391      -16.730333
 C         -24.489704      -66.390312      -18.714882
 C         -23.858160      -66.876411      -19.997229
 C         -26.054989      -66.513611      -18.524847
 C         -24.433729      -68.286568      -20.426689
 C         -26.571091      -67.851196      -18.950756
 C         -26.007488      -68.279968      -20.351828
 H         -22.798265      -67.093010      -19.883698
 H         -24.147024      -66.230583      -20.829206
 H         -26.288015      -66.296761      -17.415791
 H         -26.528921      -65.698662      -19.052099
 H         -23.970980      -68.987534      -19.706390
 H         -24.107285      -68.624657      -21.365116
 H         -27.703259      -67.844925      -19.034496
 H         -26.408728      -68.510284      -18.125093
 H         -26.574177      -69.188263      -20.608694
 H         -26.283861      -67.474358      -21.023809
