20
 generated by VMD
 C         -79.897240     -205.410263      -71.669357
 N         -79.920280     -206.598541      -71.537048
 H         -76.843567     -203.763153      -71.697708
 H         -79.882843     -204.338165      -71.563919
 C         -76.184776     -203.869156      -70.834007
 C         -75.345833     -202.686737      -70.449799
 C         -76.253563     -205.105087      -70.094086
 C         -73.873047     -203.233322      -70.336159
 C         -75.056343     -205.160431      -69.033501
 C         -73.831024     -204.666382      -69.761841
 H         -75.658577     -202.269699      -69.447701
 H         -75.475395     -201.842438      -71.162880
 H         -77.089012     -205.314697      -69.535629
 H         -76.251099     -205.807388      -70.886200
 H         -73.433258     -202.508972      -69.682373
 H         -73.322098     -203.089462      -71.307327
 H         -74.973618     -206.146393      -68.591820
 H         -75.374626     -204.435608      -68.190826
 H         -72.841316     -204.729111      -69.227249
 H         -73.646103     -205.243378      -70.692703
