20
 generated by VMD
 C         -67.268906     -189.681824      -66.766487
 N         -66.678200     -189.083786      -67.553757
 H         -69.123505     -189.428513      -64.252373
 H         -67.726624     -190.226807      -65.991966
 C         -70.196480     -189.251923      -64.109695
 C         -71.081757     -190.372986      -63.843330
 C         -70.374611     -187.900696      -63.515816
 C         -72.505981     -189.908539      -64.200287
 C         -71.851608     -187.429031      -63.542709
 C         -72.886284     -188.571060      -63.323277
 H         -70.893745     -190.768768      -62.803757
 H         -70.825134     -191.231369      -64.506172
 H         -69.967041     -187.858002      -62.433903
 H         -69.750984     -187.191742      -64.003044
 H         -73.130272     -190.728424      -63.860725
 H         -72.579773     -189.714279      -65.298790
 H         -71.994835     -186.908646      -64.529121
 H         -71.829994     -186.639053      -62.786957
 H         -72.691315     -188.774231      -62.212730
 H         -73.962662     -188.292511      -63.397774
