20
 generated by VMD
 C         -24.343405      -69.949638      -16.581535
 N         -24.489515      -70.357452      -15.507109
 H         -23.665041      -67.306755      -18.969286
 H         -23.953060      -69.500420      -17.596939
 C         -24.341429      -67.917603      -19.539907
 C         -23.939373      -68.605629      -20.752516
 C         -25.831675      -67.653458      -19.432257
 C         -24.607286      -69.950447      -21.155195
 C         -26.620770      -68.927032      -19.875101
 C         -26.141270      -69.548737      -21.164940
 H         -22.894073      -68.788269      -20.658190
 H         -23.944874      -67.958084      -21.685030
 H         -25.991865      -67.354141      -18.323177
 H         -26.113447      -66.758461      -20.091356
 H         -24.548979      -70.712860      -20.377642
 H         -24.367458      -70.357956      -22.129690
 H         -27.622602      -68.587189      -19.951885
 H         -26.750742      -69.556755      -19.073566
 H         -26.783623      -70.401871      -21.372126
 H         -26.219061      -68.822456      -21.990749
