20
 generated by VMD
 C         -13.731997      -42.892872       -5.977303
 N         -12.868968      -43.160629       -6.657123
 H         -14.964303      -45.096569       -8.934134
 H         -14.290279      -43.685429       -9.726546
 C         -15.202835      -44.332695       -9.709473
 C         -16.500706      -43.575985       -9.303102
 C         -15.307994      -45.114506      -11.035318
 C         -16.849674      -42.674625      -10.478671
 C         -15.798234      -44.250759      -12.158291
 C         -17.105673      -43.565510      -11.697252
 H         -16.376900      -42.995495       -8.400140
 H         -17.330856      -44.341461       -9.156024
 H         -14.312810      -45.521999      -11.266698
 H         -15.975009      -46.047161      -10.986531
 H         -16.047026      -41.981300      -10.692094
 H         -17.757584      -42.112179      -10.296106
 H         -15.886699      -44.888554      -13.022643
 H         -15.176134      -43.368927      -12.442719
 H         -17.527834      -42.941154      -12.466523
 H         -17.860788      -44.341812      -11.456295
