20
 generated by VMD
 C         -29.685465      -89.467392      -25.090126
 N         -29.128258      -89.486626      -26.121441
 H         -31.949865      -91.233284      -27.376551
 H         -30.034870      -89.293800      -24.074781
 C         -32.856125      -90.661438      -27.547472
 C         -34.235622      -91.035118      -27.030832
 C         -32.818043      -89.568184      -28.520140
 C         -35.075394      -89.839760      -26.534311
 C         -33.450329      -88.374695      -27.834064
 C         -34.948574      -88.633827      -27.556019
 H         -34.132748      -91.591553      -26.102266
 H         -34.809467      -91.700134      -27.583271
 H         -31.748955      -89.513252      -28.627171
 H         -33.141182      -89.866432      -29.536993
 H         -34.746655      -89.548027      -25.547897
 H         -36.165363      -90.031250      -26.654346
 H         -33.293278      -87.613853      -28.603058
 H         -33.085873      -88.047913      -26.899248
 H         -35.529419      -87.738564      -27.243452
 H         -35.557987      -88.976334      -28.632334
