20
 generated by VMD
 C         -40.715496     -100.152061      -30.110361
 N         -40.849602     -100.374191      -28.996073
 H         -37.428478      -99.741356      -30.851864
 H         -40.653629     -100.203674      -31.245930
 C         -36.393105      -99.978264      -30.841784
 C         -36.045200      -99.750809      -32.325417
 C         -35.248589      -99.786552      -29.812548
 C         -35.025970      -98.594673      -32.372009
 C         -34.382187      -98.644165      -30.045231
 C         -33.922649      -98.748871      -31.436642
 H         -36.980450      -99.502235      -32.934200
 H         -35.591381     -100.629578      -32.736694
 H         -35.755314      -99.538727      -28.810823
 H         -34.656715     -100.682076      -29.653666
 H         -35.576817      -97.671867      -32.067715
 H         -34.787838      -98.535538      -33.475166
 H         -33.524742      -98.744621      -29.351954
 H         -34.850517      -97.680527      -29.742800
 H         -33.267353      -97.916840      -31.727770
 H         -33.260189      -99.567238      -31.665777
