20
 generated by VMD
 C         -11.786731      -33.657841       -8.591087
 N         -10.844469      -34.113262       -8.936808
 H         -11.509593      -36.838978       -7.985964
 H         -12.088143      -36.322899       -6.419343
 C         -12.290421      -37.006519       -7.238943
 C         -11.993930      -38.389751       -6.587690
 C         -13.698808      -36.851425       -7.723868
 C         -12.977403      -38.626163       -5.390647
 C         -14.712859      -37.226177       -6.633412
 C         -14.413258      -38.538097       -5.965573
 H         -10.975884      -38.514229       -6.192073
 H         -12.241620      -39.129990       -7.349810
 H         -13.851781      -35.810398       -8.131145
 H         -13.872222      -37.627377       -8.431316
 H         -12.865211      -37.838657       -4.617949
 H         -12.774770      -39.608036       -5.024062
 H         -15.749323      -37.201736       -7.147191
 H         -14.740932      -36.446892       -5.906261
 H         -15.183102      -38.744114       -5.201061
 H         -14.542970      -39.366062       -6.724152
