20
 generated by VMD
 C         -15.531719      -47.631584       -6.309620
 N         -15.658576      -46.609570       -5.894594
 H         -16.504717      -47.443905       -9.926381
 H         -15.185290      -47.182659      -11.037705
 C         -16.269461      -46.925095      -10.887607
 C         -16.486265      -45.356606      -10.803906
 C         -17.111595      -47.388523      -12.039575
 C         -16.120310      -44.572273      -12.117077
 C         -16.956396      -46.644596      -13.370562
 C         -17.037989      -45.134964      -13.197125
 H         -15.821630      -44.934536      -10.065742
 H         -17.558901      -45.170071      -10.529056
 H         -16.968409      -48.473770      -12.272438
 H         -18.174358      -47.220062      -11.769169
 H         -15.048242      -44.735489      -12.323252
 H         -16.352356      -43.482849      -11.988499
 H         -17.629879      -47.149494      -14.081758
 H         -16.004065      -46.873928      -13.790166
 H         -16.836674      -44.605747      -14.092190
 H         -18.060492      -44.848343      -12.962941
