20
 generated by VMD
 C         -37.100998      -98.220490      -25.827007
 N         -36.185440      -98.439705      -26.519016
 H         -36.132835      -95.643044      -28.491110
 H         -38.019363      -97.888641      -25.292772
 C         -35.545559      -95.456192      -29.383091
 C         -35.680771      -96.303787      -30.562469
 C         -34.341637      -94.609390      -29.085707
 C         -35.245678      -95.689507      -31.860405
 C         -33.847363      -94.027275      -30.406908
 C         -33.777744      -95.043251      -31.563730
 H         -36.635296      -96.776588      -30.667196
 H         -35.005348      -97.161484      -30.371721
 H         -34.703129      -93.914886      -28.369640
 H         -33.621468      -95.325783      -28.705973
 H         -35.974976      -94.959290      -32.008099
 H         -35.279598      -96.423019      -32.713669
 H         -32.848106      -93.666580      -30.348030
 H         -34.436928      -93.202026      -30.820749
 H         -33.527756      -94.691917      -32.539768
 H         -33.166370      -95.950935      -31.253830
