20
 generated by VMD
 C         -38.746181     -108.345573      -36.821434
 N         -37.752155     -108.847000      -37.191799
 H         -41.746830     -109.591385      -36.064011
 H         -39.550545     -107.807182      -36.281757
 C         -41.499565     -110.094734      -35.194599
 C         -40.740799     -111.323059      -35.507633
 C         -42.408283     -109.826591      -34.137585
 C         -40.366383     -112.016205      -34.216030
 C         -42.122120     -110.701393      -32.941135
 C         -41.614246     -112.181885      -33.344299
 H         -39.792969     -111.028305      -35.945267
 H         -41.322735     -111.974510      -36.236988
 H         -42.383099     -108.737228      -33.967758
 H         -43.410946     -110.112228      -34.546673
 H         -39.659039     -111.447319      -33.619766
 H         -39.825768     -112.923088      -34.559361
 H         -42.847866     -110.836205      -32.156258
 H         -41.238552     -110.181274      -32.432587
 H         -41.375000     -112.634697      -32.341709
 H         -42.436447     -112.706474      -33.693008
