20
 generated by VMD
 C         -38.669968      -98.904152      -27.417650
 N         -37.897423      -99.384010      -26.690695
 H         -37.306686      -97.216721      -30.515112
 H         -39.485847      -98.632416      -28.001169
 C         -36.201759      -97.137589      -30.554619
 C         -35.600395      -97.661446      -31.852293
 C         -35.356651      -96.594513      -29.392756
 C         -34.295330      -96.944550      -32.261879
 C         -34.389431      -95.604530      -30.070202
 C         -33.539116      -96.396584      -31.110069
 H         -36.364941      -97.546814      -32.593025
 H         -35.406647      -98.763832      -31.674576
 H         -35.843609      -96.079338      -28.599638
 H         -34.844505      -97.433571      -28.906162
 H         -34.360355      -96.081085      -32.889820
 H         -33.557449      -97.628113      -32.745888
 H         -33.697296      -95.346939      -29.239407
 H         -34.846729      -94.639023      -30.327108
 H         -32.697392      -95.714272      -31.516855
 H         -33.046295      -97.223373      -30.669626
