20
 generated by VMD
 C         -52.490231     -146.922318      -45.358673
 N         -53.180836     -147.394302      -44.511459
 H         -54.882320     -147.164032      -48.056454
 H         -51.882267     -146.470108      -46.109539
 C         -54.697639     -146.223633      -48.627235
 C         -53.305645     -146.052185      -49.277626
 C         -55.311264     -144.933502      -47.966816
 C         -53.297310     -144.936630      -50.288391
 C         -55.221886     -143.779343      -49.029602
 C         -53.837524     -143.594574      -49.698757
 H         -53.016270     -147.003250      -49.725498
 H         -52.533577     -145.882217      -48.441078
 H         -56.359070     -145.143066      -47.556644
 H         -54.581230     -144.801956      -47.094185
 H         -53.818825     -145.307693      -51.302708
 H         -52.334820     -144.596817      -50.774540
 H         -55.667576     -142.857651      -48.682270
 H         -55.937912     -144.160904      -49.753361
 H         -53.985527     -143.102829      -50.679729
 H         -53.063515     -143.072342      -49.101181
