20
 generated by VMD
 C         -68.074913     -192.863159      -66.319221
 N         -68.654816     -193.058853      -67.291115
 H         -69.897102     -189.899704      -65.341461
 H         -67.782967     -192.644440      -65.334885
 C         -70.971252     -190.168655      -65.242737
 C         -71.572105     -190.966431      -66.400536
 C         -71.556168     -190.302185      -63.843838
 C         -72.563950     -191.990601      -65.949486
 C         -73.110901     -190.436234      -63.945637
 C         -73.570312     -191.552811      -64.938324
 H         -70.724754     -191.434479      -67.030136
 H         -72.118156     -190.273422      -66.970802
 H         -71.230232     -191.238693      -63.383068
 H         -71.298210     -189.390594      -63.354855
 H         -71.921066     -192.796783      -65.576263
 H         -73.018890     -192.549500      -66.736183
 H         -73.469719     -189.494766      -64.359497
 H         -73.744591     -190.609055      -63.040398
 H         -73.885239     -192.401001      -64.425270
 H         -74.412598     -191.250351      -65.744415
