20
 generated by VMD
 C         -21.568342      -65.822769      -16.997944
 N         -20.971622      -66.376183      -16.156357
 H         -24.237282      -63.827999      -18.139828
 H         -22.073103      -65.019730      -17.722910
 C         -24.458010      -64.920250      -18.405365
 C         -24.449078      -65.382599      -19.811766
 C         -25.345774      -65.698769      -17.489172
 C         -24.321501      -66.881042      -19.992928
 C         -25.201113      -67.199425      -17.571236
 C         -25.257263      -67.646652      -19.061396
 H         -23.666676      -64.848221      -20.330193
 H         -25.406111      -65.192963      -20.475527
 H         -24.950033      -65.383293      -16.472322
 H         -26.385159      -65.515472      -17.808535
 H         -23.287291      -67.219139      -19.920177
 H         -24.592978      -67.108551      -21.016596
 H         -25.999599      -67.795914      -17.082727
 H         -24.250748      -67.420105      -17.102047
 H         -24.904840      -68.701164      -19.068878
 H         -26.271004      -67.758011      -19.487921
