20
 generated by VMD
 C         -22.525629      -52.271248      -11.650223
 N         -22.258944      -52.711658      -10.582848
 H         -19.917406      -52.528130      -14.235205
 H         -22.742016      -51.786270      -12.809252
 C         -18.965771      -52.306923      -13.938955
 C         -17.921671      -51.754608      -14.836248
 C         -18.498011      -52.770477      -12.593588
 C         -16.509731      -52.170086      -14.555679
 C         -17.157051      -52.178169      -12.088573
 C         -16.011311      -52.119591      -13.107901
 H         -18.024820      -50.656616      -14.711403
 H         -18.059704      -52.014679      -15.859789
 H         -19.292486      -52.528458      -11.870784
 H         -18.428326      -53.909298      -12.677027
 H         -15.795103      -51.586052      -15.135935
 H         -16.299118      -53.179062      -14.894353
 H         -16.841347      -52.640137      -11.115170
 H         -17.371460      -51.181034      -11.869453
 H         -15.323593      -51.303036      -12.864458
 H         -15.347258      -52.961910      -12.963317
