20
 generated by VMD
 C         -59.859108     -172.040268      -55.211689
 N         -59.696182     -173.071426      -54.808689
 H         -63.128197     -170.092560      -56.071712
 H         -59.776268     -171.064850      -55.671089
 C         -63.557709     -169.338333      -56.789249
 C         -62.764950     -168.308426      -57.422203
 C         -64.997528     -169.495178      -57.144768
 C         -63.166779     -167.914871      -58.852867
 C         -65.370590     -169.098434      -58.544971
 C         -64.709084     -167.673935      -58.891262
 H         -61.680710     -168.714783      -57.653316
 H         -62.618176     -167.485565      -56.887417
 H         -65.301842     -170.580902      -57.000984
 H         -65.648979     -169.003769      -56.463177
 H         -62.901634     -168.705185      -59.523674
 H         -62.572121     -167.003174      -59.122200
 H         -66.452957     -169.075211      -58.822807
 H         -64.885849     -169.831650      -59.295937
 H         -65.050667     -167.188538      -59.849400
 H         -65.169945     -167.019730      -58.134510
