20
 generated by VMD
 C         -31.367813      -79.436440      -26.300287
 N         -30.860672      -78.366867      -26.423679
 H         -28.731407      -81.040245      -25.324682
 H         -31.770456      -80.398506      -26.409004
 C         -28.769592      -81.679726      -24.415627
 C         -27.789837      -81.521301      -23.387394
 C         -29.884485      -82.668915      -24.168329
 C         -28.371931      -81.309059      -21.997578
 C         -30.580547      -82.406212      -22.760372
 C         -29.489666      -82.276482      -21.642509
 H         -27.123302      -80.724113      -23.707706
 H         -27.037207      -82.399330      -23.391367
 H         -30.698631      -82.526398      -24.903868
 H         -29.481009      -83.724472      -24.376234
 H         -28.850197      -80.333870      -21.885601
 H         -27.468201      -81.338455      -21.438198
 H         -31.242002      -83.241859      -22.659531
 H         -31.291168      -81.456703      -22.785858
 H         -30.035748      -82.034821      -20.686419
 H         -28.965775      -83.293480      -21.615974
