20
 generated by VMD
 C         -49.625008     -131.700912      -46.628265
 N         -50.149380     -132.588074      -47.270523
 H         -47.551132     -133.548141      -43.921616
 H         -49.186352     -131.140686      -45.767628
 C         -48.603058     -133.502625      -43.698074
 C         -49.384686     -134.731659      -44.025841
 C         -49.093369     -132.712601      -42.484982
 C         -49.549747     -135.662079      -42.752262
 C         -49.238628     -133.574936      -41.273575
 C         -50.045246     -134.894669      -41.566406
 H         -48.924866     -135.224792      -44.872288
 H         -50.324921     -134.332870      -44.364319
 H         -48.395733     -131.800858      -42.227516
 H         -50.086678     -132.220215      -42.757298
 H         -48.520237     -136.141937      -42.540955
 H         -50.229778     -136.422119      -43.172203
 H         -49.683460     -133.025650      -40.470112
 H         -48.250195     -133.921829      -41.059784
 H         -50.350704     -135.526276      -40.661366
 H         -51.034908     -134.667664      -41.825199
