20
 generated by VMD
 C         -80.004158     -205.469559      -71.610786
 N         -80.007004     -206.601715      -71.528160
 H         -77.442108     -203.261032      -70.677231
 H         -80.061668     -204.399719      -71.411606
 C         -76.427223     -203.568008      -70.522324
 C         -75.267334     -202.682343      -70.562126
 C         -76.110710     -204.973938      -70.173203
 C         -73.781929     -203.151932      -70.323387
 C         -74.966034     -205.039276      -69.115944
 C         -73.598877     -204.563629      -69.646652
 H         -75.447304     -201.937500      -69.788315
 H         -75.228996     -202.043243      -71.460899
 H         -77.129662     -205.358627      -69.796478
 H         -75.717636     -205.642532      -70.974922
 H         -73.215027     -202.426544      -69.666206
 H         -73.221581     -203.162552      -71.244682
 H         -74.847916     -206.088104      -68.732239
 H         -75.201538     -204.380905      -68.329834
 H         -72.813332     -204.699905      -68.951279
 H         -73.314796     -205.322540      -70.404465
