20
 generated by VMD
 C         -69.042465     -194.877869      -65.440712
 N         -68.595688     -194.267303      -64.577095
 H         -71.315079     -194.280228      -68.001511
 H         -69.496727     -195.179764      -66.371445
 C         -71.992325     -193.668594      -67.403381
 C         -71.703568     -192.563446      -66.512711
 C         -73.366943     -194.285004      -67.155182
 C         -72.768356     -192.288406      -65.489357
 C         -74.475182     -193.274170      -67.058807
 C         -74.102882     -192.101837      -66.178940
 H         -71.488693     -191.677795      -67.111748
 H         -70.748695     -192.825897      -66.023521
 H         -73.640923     -194.934418      -68.021858
 H         -73.335884     -194.830399      -66.219955
 H         -72.516800     -191.402267      -64.889305
 H         -72.865761     -193.087646      -64.736671
 H         -75.335098     -193.725342      -66.645653
 H         -74.764832     -193.001602      -68.096985
 H         -73.981064     -191.275055      -66.870872
 H         -74.929901     -191.704529      -65.451973
