20
 generated by VMD
 C         -11.930090      -26.226669       -0.110045
 N         -12.838203      -26.267179       -0.751050
 H         -10.070770      -26.351162       -3.450624
 H          -9.378855      -25.702862       -4.929127
 C          -9.102348      -26.135820       -3.949476
 C          -8.178231      -27.330065       -4.139726
 C          -8.525459      -25.097012       -3.023706
 C          -6.771292      -26.907351       -4.665278
 C          -7.136512      -24.674862       -3.362533
 C          -6.168922      -25.831806       -3.764258
 H          -8.605415      -28.005390       -5.019575
 H          -8.027766      -27.882345       -3.190118
 H          -9.187309      -24.208061       -3.168547
 H          -8.547726      -25.405085       -1.979487
 H          -6.921945      -26.454750       -5.670546
 H          -6.154796      -27.820055       -4.696782
 H          -6.779759      -24.166538       -2.459736
 H          -7.089639      -23.897654       -4.163301
 H          -5.358421      -25.298580       -4.295449
 H          -5.738129      -26.188494       -2.847883
