20
 generated by VMD
 C         -68.386803     -185.608566      -67.093773
 N         -67.903374     -184.609100      -67.366257
 H         -68.989716     -188.406021      -64.574333
 H         -68.988960     -186.507706      -66.786263
 C         -69.447899     -187.935852      -63.762821
 C         -69.290894     -186.469727      -63.593544
 C         -70.398254     -188.706451      -62.957859
 C         -69.370995     -186.063736      -62.117260
 C         -70.606514     -188.110092      -61.592735
 C         -70.716820     -186.597443      -61.607464
 H         -70.024933     -185.973328      -64.215851
 H         -68.284279     -186.328110      -63.887592
 H         -71.390709     -188.666977      -63.491695
 H         -70.086159     -189.793320      -62.857700
 H         -69.096916     -184.969391      -62.102859
 H         -68.691116     -186.649872      -61.493988
 H         -69.880440     -188.429291      -60.801216
 H         -71.472961     -188.614502      -61.162224
 H         -71.551140     -186.279800      -62.204807
 H         -70.820923     -185.989044      -60.675003
