20
 generated by VMD
 C         -21.206722      -52.054226      -10.318232
 N         -21.459558      -53.120934      -10.682930
 H         -19.741789      -50.153507      -12.733189
 H         -21.141623      -51.074650      -10.230055
 C         -18.769772      -50.431618      -13.002338
 C         -18.304403      -51.781303      -13.504524
 C         -17.737452      -49.682533      -12.203671
 C         -16.892302      -51.718918      -14.178915
 C         -16.344814      -49.754311      -12.818651
 C         -15.763520      -51.031059      -13.364106
 H         -19.021940      -52.227215      -14.170651
 H         -18.308071      -52.487434      -12.622493
 H         -18.107420      -48.650558      -12.075588
 H         -17.791319      -50.222820      -11.288937
 H         -17.009254      -51.202587      -15.170571
 H         -16.634689      -52.801052      -14.248739
 H         -15.578232      -49.359325      -12.119439
 H         -16.404463      -49.070965      -13.677748
 H         -14.826927      -50.811718      -13.961031
 H         -15.438239      -51.667877      -12.469013
