20
 generated by VMD
 C         -40.943192     -100.921638      -32.862038
 N         -41.863628     -101.353897      -32.305256
 H         -38.413708     -103.006607      -32.487999
 H         -40.299721     -100.353058      -33.462425
 C         -37.535099     -102.766975      -31.926224
 C         -36.260799     -102.671913      -32.891872
 C         -37.278133     -102.968178      -30.473680
 C         -35.159084     -101.788025      -32.403797
 C         -36.294102     -101.814941      -30.112722
 C         -34.938583     -101.933029      -30.795637
 H         -36.634357     -102.407280      -33.911476
 H         -35.934589     -103.705666      -32.908066
 H         -38.229218     -102.856346      -29.949745
 H         -36.935715     -104.027328      -30.378078
 H         -35.359238     -100.745399      -32.596485
 H         -34.259010     -101.982468      -32.993717
 H         -36.197227     -101.693527      -28.956209
 H         -36.734703     -100.876144      -30.495619
 H         -34.307495     -101.153877      -30.527512
 H         -34.394344     -102.866493      -30.639652
