20
 generated by VMD
 C         -39.996014     -105.268845      -37.132816
 N         -39.864140     -104.107285      -37.011688
 H         -40.113041     -107.966385      -34.984238
 H         -39.984570     -106.360497      -37.291546
 C         -39.644650     -108.667084      -34.279556
 C         -38.409668     -108.056702      -33.548798
 C         -40.420937     -109.887352      -33.802750
 C         -38.834385     -107.849678      -32.093349
 C         -40.757484     -109.524948      -32.237080
 C         -39.589100     -109.083344      -31.440996
 H         -37.985939     -107.103149      -34.128792
 H         -37.586216     -108.827675      -33.593796
 H         -41.325256     -109.946236      -34.443691
 H         -39.859360     -110.757805      -33.855877
 H         -39.416103     -106.988075      -32.101955
 H         -37.959320     -107.606956      -31.506620
 H         -41.118202     -110.463631      -31.704988
 H         -41.581097     -108.695244      -32.257648
 H         -39.992477     -108.705421      -30.407871
 H         -38.919777     -109.937805      -31.338488
