20
 generated by VMD
 C         -11.960094      -39.569221       -6.877238
 N         -10.871778      -39.515743       -6.589222
 H         -13.053584      -40.994862       -9.037007
 H         -14.205462      -39.862442       -8.930881
 C         -14.089255      -40.926155       -9.114987
 C         -14.738760      -41.778847       -8.046454
 C         -14.599550      -41.289413      -10.494213
 C         -16.240137      -41.781761       -8.145037
 C         -16.077629      -41.403885      -10.584805
 C         -16.748064      -42.241756       -9.506864
 H         -14.375077      -41.433662       -7.115808
 H         -14.391640      -42.804111       -8.115767
 H         -14.292763      -40.524403      -11.218457
 H         -14.152970      -42.275826      -10.798633
 H         -16.673725      -40.787350       -7.932555
 H         -16.607767      -42.415119       -7.383492
 H         -16.333487      -41.949116      -11.531619
 H         -16.573132      -40.466660      -10.623274
 H         -17.833303      -42.129780       -9.561469
 H         -16.441366      -43.261665       -9.737830
