20
 generated by VMD
 C         -11.370018      -37.415134       -7.118457
 N         -11.416932      -37.788280       -8.190521
 H         -12.361122      -40.456474       -8.301820
 H         -13.593559      -39.917995       -7.101364
 C         -13.494362      -40.457718       -8.116747
 C         -14.040812      -41.828468       -7.963487
 C         -14.212961      -39.691395       -9.171214
 C         -15.572781      -41.881443       -7.841807
 C         -15.737160      -39.685104       -8.924306
 C         -16.222685      -41.050640       -8.931380
 H         -13.725708      -42.251312       -7.014025
 H         -13.726786      -42.538780       -8.730887
 H         -13.886718      -38.687077       -9.217465
 H         -14.085352      -40.111362      -10.167624
 H         -15.910677      -41.524376       -6.899485
 H         -15.839395      -42.947670       -7.884132
 H         -16.127165      -39.146679       -9.741200
 H         -16.005991      -39.166077       -7.931805
 H         -17.319120      -41.083748       -8.792758
 H         -15.975696      -41.568733       -9.908940
