20
 generated by VMD
 C         -22.407122      -67.680840      -16.218773
 N         -21.287554      -67.587685      -15.950651
 H         -23.953362      -65.527748      -18.399277
 H         -23.578350      -67.785561      -16.324421
 C         -24.496248      -66.455284      -18.624838
 C         -23.876131      -66.894928      -19.973909
 C         -25.969522      -66.504471      -18.615650
 C         -24.456190      -68.218224      -20.394238
 C         -26.577028      -67.893997      -18.912687
 C         -26.022785      -68.164909      -20.266373
 H         -22.745485      -66.817032      -19.868935
 H         -23.998989      -66.054893      -20.649206
 H         -26.355610      -66.259262      -17.576609
 H         -26.381933      -65.781548      -19.277996
 H         -24.122429      -69.111008      -19.854395
 H         -24.226978      -68.306824      -21.408541
 H         -27.705103      -67.782959      -18.926739
 H         -26.229460      -68.719757      -18.317190
 H         -26.201805      -69.205009      -20.557327
 H         -26.486326      -67.539307      -21.000265
