20
 generated by VMD
 C         -49.205517     -127.264992      -39.607109
 N         -50.344055     -127.281944      -39.577248
 H         -47.078472     -127.068405      -41.891590
 H         -48.122341     -127.227997      -39.472065
 C         -46.330097     -126.375809      -41.858124
 C         -45.434956     -127.043770      -40.880295
 C         -46.568596     -125.019608      -42.097301
 C         -44.392704     -126.021011      -40.362598
 C         -45.455647     -124.086235      -41.493515
 C         -44.844055     -124.601074      -40.131657
 H         -44.834064     -127.831070      -41.403927
 H         -45.893620     -127.657806      -40.176937
 H         -46.718121     -124.946457      -43.176041
 H         -47.664089     -124.740616      -41.837749
 H         -43.521908     -126.000916      -41.096565
 H         -43.909378     -126.547081      -39.506046
 H         -45.879253     -122.988388      -41.568192
 H         -44.613613     -123.989189      -42.242371
 H         -44.028870     -123.924980      -39.989079
 H         -45.510147     -124.484108      -39.315304
