20
 generated by VMD
 C         -43.641613     -121.255379      -36.177891
 N         -43.657310     -120.555458      -35.276684
 H         -44.739563     -122.359314      -39.123314
 H         -43.830315     -121.958176      -36.910744
 C         -44.738766     -121.377045      -39.383102
 C         -43.427441     -120.832748      -39.725857
 C         -45.765244     -120.475601      -38.880386
 C         -43.432583     -119.315414      -40.163597
 C         -45.787239     -119.050926      -39.464241
 C         -44.323318     -118.442184      -39.294888
 H         -42.925404     -121.409859      -40.506073
 H         -42.772060     -120.960358      -38.770184
 H         -46.735760     -121.003601      -39.002247
 H         -45.631535     -120.438370      -37.746059
 H         -43.763824     -119.365372      -41.180550
 H         -42.455128     -118.903938      -40.262127
 H         -46.525166     -118.372726      -39.051914
 H         -46.105061     -119.214142      -40.442719
 H         -44.350948     -117.495018      -39.812378
 H         -43.821186     -118.505196      -38.322971
