20
 generated by VMD
 C         -13.104206      -28.663595       -5.735481
 N         -12.706018      -27.679438       -5.380761
 H         -11.519605      -30.952150       -3.384327
 H         -11.221098      -29.540464       -4.242260
 C         -10.679833      -30.378988       -3.772699
 C          -9.774299      -31.100719       -4.773235
 C          -9.801499      -29.745634       -2.615647
 C          -8.692922      -30.162140       -5.345865
 C          -8.662931      -28.925863       -3.134239
 C          -7.794715      -29.652187       -4.212969
 H         -10.439120      -31.570967       -5.492735
 H          -9.200584      -31.978151       -4.407758
 H         -10.398515      -29.255999       -1.853351
 H          -9.396770      -30.653069       -2.144482
 H          -9.227875      -29.332119       -5.831395
 H          -8.144702      -30.522936       -6.204965
 H          -8.061879      -28.521425       -2.329564
 H          -9.107112      -28.020018       -3.643283
 H          -7.019539      -28.945215       -4.573641
 H          -7.223301      -30.444801       -3.684063
