20
 generated by VMD
 C         -67.219543     -191.588516      -66.203278
 N         -67.180511     -191.070526      -67.264793
 H         -70.224365     -190.083649      -66.430168
 H         -67.408226     -192.189133      -65.372780
 C         -70.999191     -190.151230      -65.631470
 C         -72.090446     -191.209137      -65.578720
 C         -70.999176     -189.093735      -64.503975
 C         -73.395561     -190.816605      -64.962669
 C         -72.194778     -189.160736      -63.456211
 C         -73.025780     -190.379257      -63.465321
 H         -71.609756     -192.116455      -64.936821
 H         -72.154800     -191.679855      -66.570854
 H         -69.925934     -189.034729      -64.052223
 H         -71.058571     -188.130905      -65.017784
 H         -74.051674     -191.722580      -64.910011
 H         -73.759491     -189.979935      -65.521896
 H         -72.775108     -188.283447      -63.693348
 H         -71.609283     -189.141281      -62.477047
 H         -72.496346     -191.185730      -62.788776
 H         -73.953217     -190.267090      -62.967583
