20
 generated by VMD
 C         -79.806641     -206.923813      -73.369141
 N         -79.849930     -206.049805      -74.192230
 H         -78.285385     -205.116257      -70.419823
 H         -79.601517     -207.726730      -72.713928
 C         -77.305473     -205.519699      -70.321327
 C         -76.203331     -204.661255      -70.967873
 C         -76.913368     -206.856232      -69.578674
 C         -74.807838     -204.826920      -70.411446
 C         -75.408661     -206.994461      -69.198792
 C         -74.425987     -206.277267      -70.108749
 H         -76.312508     -203.656189      -70.653648
 H         -76.270363     -204.585541      -72.021812
 H         -77.344978     -206.817017      -68.570496
 H         -77.402290     -207.637177      -70.145767
 H         -74.646774     -204.270447      -69.437744
 H         -74.013725     -204.425354      -71.102623
 H         -75.238655     -208.057587      -69.203773
 H         -75.285706     -206.539093      -68.154594
 H         -73.377075     -206.311584      -69.830299
 H         -74.588692     -206.912720      -70.984421
