20
 generated by VMD
 C         -23.304346      -53.496502      -14.327166
 N         -24.178158      -53.262730      -15.042969
 H         -20.701519      -55.693001      -14.711287
 H         -22.125418      -53.577534      -13.858010
 C         -19.572496      -55.472889      -14.597770
 C         -19.299189      -54.333061      -13.622880
 C         -18.507458      -56.372391      -14.962803
 C         -18.122643      -54.483284      -12.705350
 C         -17.914642      -56.837498      -13.691794
 C         -17.177790      -55.691532      -12.886403
 H         -20.178324      -54.070240      -13.047193
 H         -19.140600      -53.423061      -14.188415
 H         -19.001070      -57.167934      -15.563484
 H         -17.816227      -55.860489      -15.545222
 H         -18.538671      -54.441387      -11.653946
 H         -17.486135      -53.580067      -12.676083
 H         -17.171587      -57.676132      -13.836308
 H         -18.691774      -57.201836      -13.044337
 H         -16.857689      -56.038918      -11.907371
 H         -16.218630      -55.433758      -13.294435
