20
 generated by VMD
 C         -33.621235      -96.508003      -25.755539
 N         -34.627750      -96.528992      -26.352606
 H         -35.021919      -94.338211      -27.362566
 H         -32.621422      -96.638428      -25.206732
 C         -34.974922      -94.113541      -28.437788
 C         -35.952877      -94.781151      -29.319769
 C         -33.613361      -93.926872      -29.002062
 C         -36.085293      -93.916267      -30.538710
 C         -33.783730      -92.938248      -30.209215
 C         -34.707932      -93.604225      -31.270660
 H         -36.922279      -94.993248      -28.899834
 H         -35.525669      -95.759399      -29.551636
 H         -33.025204      -93.415840      -28.183969
 H         -32.964966      -94.736076      -29.362417
 H         -36.441772      -92.952118      -30.261602
 H         -36.728760      -94.371063      -31.330526
 H         -32.736980      -92.831276      -30.534500
 H         -34.197540      -91.991577      -29.864145
 H         -34.748074      -92.910027      -32.118263
 H         -34.231567      -94.551010      -31.589518
