20
 generated by VMD
 C         -66.294304     -177.931702      -56.909756
 N         -67.421356     -177.655396      -57.031948
 H         -64.329628     -175.981110      -59.319450
 H         -65.224739     -178.168793      -56.717125
 C         -64.254890     -174.979874      -59.384823
 C         -65.476547     -174.137436      -59.174900
 C         -63.402641     -174.446747      -60.458645
 C         -65.263184     -172.577255      -59.214672
 C         -63.080330     -173.038757      -60.267948
 C         -64.328560     -172.154068      -60.387970
 H         -66.173218     -174.416412      -58.298481
 H         -66.097183     -174.413452      -59.982563
 H         -62.366611     -174.969467      -60.353977
 H         -63.795826     -174.849518      -61.434330
 H         -64.820297     -172.227417      -58.232662
 H         -66.156563     -171.934570      -59.282215
 H         -62.345490     -172.732086      -60.953079
 H         -62.544792     -172.825348      -59.246208
 H         -63.838116     -171.183640      -60.228497
 H         -64.892616     -172.041214      -61.353279
