20
 generated by VMD
 C         -60.692780     -156.227768      -54.690784
 N         -60.197094     -155.495987      -55.374607
 H         -59.780224     -156.985641      -51.526394
 H         -61.107746     -157.072311      -54.149284
 C         -58.744843     -156.924210      -51.969810
 C         -58.079136     -155.567764      -51.959511
 C         -57.870811     -158.188004      -52.117352
 C         -57.012054     -155.618744      -50.937309
 C         -56.818607     -158.213547      -50.973125
 C         -55.974113     -156.919266      -50.997452
 H         -58.938953     -154.769714      -51.893566
 H         -57.617786     -155.485626      -52.974548
 H         -58.560352     -159.062332      -51.920673
 H         -57.333790     -158.197449      -53.033314
 H         -57.495991     -155.582382      -50.001045
 H         -56.293312     -154.740433      -50.902042
 H         -55.958168     -158.963516      -51.105785
 H         -57.276257     -158.416153      -49.972591
 H         -55.274582     -156.899338      -50.218956
 H         -55.487896     -156.900894      -52.054447
