20
 generated by VMD
 C         -12.024847      -42.750690       -7.139075
 N         -12.444765      -42.129814       -6.302015
 H         -14.945940      -43.817451       -8.147031
 H         -14.582390      -42.258537       -9.131846
 C         -15.179722      -43.203312       -9.101310
 C         -16.694941      -43.003757       -9.037303
 C         -14.806478      -44.038795      -10.353001
 C         -17.343176      -42.474335      -10.322845
 C         -15.633265      -43.675259      -11.649983
 C         -17.165295      -43.436783      -11.484126
 H         -16.936207      -42.323311       -8.176601
 H         -17.148594      -43.983017       -8.763124
 H         -13.694055      -44.013882      -10.581104
 H         -15.155565      -45.061565      -10.037760
 H         -16.924662      -41.480812      -10.472896
 H         -18.432528      -42.456554      -10.188604
 H         -15.484413      -44.538692      -12.399055
 H         -15.183931      -42.823307      -12.083845
 H         -17.645462      -43.100876      -12.424155
 H         -17.604252      -44.383625      -11.234890
