20
 generated by VMD
 C         -30.268869      -92.761864      -25.972569
 N         -31.326014      -92.718948      -25.507318
 H         -33.068703      -90.472107      -26.340141
 H         -29.369913      -92.870956      -26.479637
 C         -33.486214      -90.781006      -27.268587
 C         -34.336712      -92.074745      -27.334181
 C         -33.082249      -90.107048      -28.474670
 C         -35.636436      -91.843552      -28.056456
 C         -34.276085      -89.810188      -29.348326
 C         -35.220867      -91.077293      -29.432287
 H         -34.449928      -92.382439      -26.333872
 H         -33.656219      -92.826088      -27.803610
 H         -32.598816      -89.163506      -28.230042
 H         -32.265118      -90.551353      -29.082796
 H         -36.494366      -91.302635      -27.495962
 H         -36.072884      -92.756966      -28.373413
 H         -33.882019      -89.397736      -30.300047
 H         -34.861992      -88.947250      -28.930458
 H         -36.241367      -90.775604      -29.712896
 H         -34.882847      -91.703491      -30.233791
