20
 generated by VMD
 C         -63.135651     -173.321075      -55.677284
 N         -63.127716     -174.012970      -54.780838
 H         -61.545082     -171.560516      -58.570026
 H         -63.177254     -172.680756      -56.517708
 C         -62.537777     -171.094345      -58.433220
 C         -62.546513     -169.760757      -57.925869
 C         -63.687042     -171.697845      -59.103737
 C         -63.700508     -168.878067      -58.392277
 C         -64.900795     -170.695297      -59.455166
 C         -65.084915     -169.551071      -58.468464
 H         -61.655636     -169.271240      -58.170765
 H         -62.574924     -169.675888      -56.788029
 H         -63.476189     -172.291519      -59.956036
 H         -64.208488     -172.444458      -58.604301
 H         -63.427513     -168.422394      -59.378159
 H         -63.833080     -167.986938      -57.701641
 H         -65.811165     -171.242889      -59.645626
 H         -64.723289     -170.256760      -60.390949
 H         -65.844704     -168.796768      -58.951653
 H         -65.431023     -169.757523      -57.467766
