20
 generated by VMD
 C         -24.763227      -70.219414      -16.414011
 N         -24.861511      -70.840385      -15.432196
 H         -23.765701      -68.164413      -18.717415
 H         -24.751764      -69.551750      -17.365131
 C         -24.393112      -68.394852      -19.625288
 C         -23.807335      -69.115074      -20.876060
 C         -25.837030      -67.984436      -19.549379
 C         -24.780642      -70.262222      -21.420645
 C         -26.674252      -69.109962      -20.110331
 C         -26.176121      -69.561989      -21.538580
 H         -22.833406      -69.291397      -20.601025
 H         -23.647226      -68.421021      -21.771645
 H         -26.198763      -67.850922      -18.558775
 H         -25.867418      -67.188004      -20.198557
 H         -24.718445      -71.089493      -20.680506
 H         -24.336679      -70.487289      -22.374569
 H         -27.697556      -68.757957      -20.294979
 H         -26.808758      -70.076591      -19.598372
 H         -26.923063      -70.227081      -21.946964
 H         -26.296316      -68.731644      -22.220053
