20
 generated by VMD
 C         -39.821980     -105.592667      -37.005348
 N         -40.345894     -106.531273      -37.480072
 H         -38.816647     -108.079880      -35.137032
 H         -39.240967     -104.749954      -36.651562
 C         -39.281990     -108.421715      -34.217518
 C         -38.496925     -109.221573      -33.227562
 C         -40.567753     -109.105476      -34.385956
 C         -39.141083     -109.393677      -31.906679
 C         -41.362892     -109.335701      -33.176243
 C         -40.488098     -110.126129      -32.086342
 H         -37.559666     -108.643318      -33.043385
 H         -38.164219     -110.244507      -33.662762
 H         -41.028763     -108.451576      -35.089031
 H         -40.489265     -109.983833      -35.001312
 H         -39.202526     -108.422493      -31.410530
 H         -38.603271     -109.963661      -31.256409
 H         -42.347549     -109.828194      -33.375916
 H         -41.762478     -108.322578      -32.729107
 H         -41.045578     -110.163399      -31.195572
 H         -40.320438     -111.260567      -32.418922
