20
 generated by VMD
 C         -51.067146     -129.687332      -45.254261
 N         -51.632057     -130.255173      -46.163044
 H         -48.554398     -130.282349      -43.657879
 H         -50.654259     -129.132385      -44.438896
 C         -48.074093     -130.531799      -42.622875
 C         -48.181721     -131.963562      -41.969116
 C         -47.634243     -129.299301      -41.808830
 C         -46.914280     -132.196655      -41.193111
 C         -46.422054     -129.670258      -40.982578
 C         -46.570965     -131.008667      -40.276165
 H         -48.438454     -132.575134      -42.848312
 H         -49.040897     -131.967896      -41.268559
 H         -47.416431     -128.465515      -42.438305
 H         -48.511219     -128.891174      -41.300846
 H         -46.158363     -132.181976      -41.966892
 H         -46.818195     -133.066727      -40.565659
 H         -46.260303     -128.811447      -40.326145
 H         -45.627083     -129.637283      -41.791260
 H         -45.654404     -131.230362      -39.584484
 H         -47.371250     -131.045334      -39.492420
