20
 generated by VMD
 C         -39.438026     -105.607765      -37.124180
 N         -40.608292     -105.657867      -37.174652
 H         -39.522659     -107.666901      -34.939022
 H         -38.372066     -105.348175      -37.189560
 C         -39.462009     -108.562073      -34.306507
 C         -38.329197     -108.685883      -33.291981
 C         -40.614540     -109.353012      -34.305023
 C         -38.879158     -108.874855      -31.879545
 C         -41.296112     -109.451286      -32.879524
 C         -40.171940     -109.761269      -31.830389
 H         -37.738998     -107.837509      -33.398991
 H         -37.736851     -109.520203      -33.659065
 H         -41.254490     -108.892715      -35.050873
 H         -40.481960     -110.390480      -34.720478
 H         -39.285610     -107.858696      -31.613682
 H         -38.076546     -109.055916      -31.212143
 H         -42.233391     -110.008606      -32.870941
 H         -41.670620     -108.413933      -32.696426
 H         -40.583897     -109.666946      -30.896574
 H         -39.908569     -110.864418      -31.981180
