20
 generated by VMD
 C         -29.111393      -81.348709      -27.732527
 N         -29.847109      -80.461754      -27.555525
 H         -28.761213      -82.317398      -23.964731
 H         -28.352940      -82.242195      -27.694021
 C         -29.325928      -83.239891      -23.759359
 C         -29.810509      -83.689064      -22.419121
 C         -29.988480      -83.882957      -24.911625
 C         -31.323563      -83.912231      -22.255117
 C         -31.534988      -83.968040      -24.828257
 C         -31.886154      -84.664337      -23.469793
 H         -29.454519      -82.928596      -21.761875
 H         -29.233700      -84.707336      -22.203991
 H         -29.854092      -83.224854      -25.778759
 H         -29.448421      -84.867470      -25.105980
 H         -31.762289      -82.849945      -22.290186
 H         -31.405386      -84.364189      -21.329264
 H         -32.005661      -84.582718      -25.663494
 H         -32.112026      -82.958717      -24.772820
 H         -32.958309      -84.828171      -23.265406
 H         -31.373194      -85.667412      -23.607092
