20
 generated by VMD
 C         -50.200703     -145.163818      -44.786160
 N         -49.608616     -144.345947      -44.303017
 H         -52.933788     -142.630630      -45.752880
 H         -50.619076     -145.973267      -45.369995
 C         -53.322441     -142.626907      -46.752579
 C         -52.417351     -142.703659      -48.032326
 C         -54.643337     -141.930161      -46.721504
 C         -53.325962     -142.893814      -49.307423
 C         -55.414513     -142.137375      -48.023441
 C         -54.581921     -141.974319      -49.244022
 H         -51.729115     -143.532822      -47.843410
 H         -51.861095     -141.680130      -48.265682
 H         -55.396549     -142.051331      -45.922619
 H         -54.411884     -140.757614      -46.634949
 H         -53.679031     -143.912674      -49.440361
 H         -52.747696     -142.664795      -50.207153
 H         -56.327538     -141.524368      -48.084518
 H         -55.686996     -143.281479      -48.039577
 H         -55.247211     -142.367783      -50.032181
 H         -54.420036     -140.873840      -49.260845
