20
 generated by VMD
 C         -30.499893      -75.368866      -21.146276
 N         -31.629793      -75.272263      -20.966534
 H         -27.935493      -74.597580      -20.128326
 H         -29.429321      -75.537300      -21.320522
 C         -26.926270      -74.770271      -20.505838
 C         -26.599092      -75.993324      -21.375448
 C         -25.913715      -73.674873      -20.387646
 C         -26.115076      -75.584084      -22.684555
 C         -25.357912      -73.242706      -21.797184
 C         -24.911543      -74.561790      -22.512972
 H         -27.466991      -76.529907      -21.486046
 H         -25.750250      -76.475006      -20.840935
 H         -26.412071      -72.688377      -19.890642
 H         -25.122139      -74.023857      -19.648781
 H         -26.882177      -75.069702      -23.234922
 H         -25.772999      -76.437569      -23.267235
 H         -24.459816      -72.581345      -21.574345
 H         -26.113792      -72.831345      -22.587502
 H         -24.532400      -74.254250      -23.519402
 H         -23.978142      -74.969971      -22.063639
