20
 generated by VMD
 C         -50.626804     -129.376266      -43.129230
 N         -50.333931     -128.296738      -42.805592
 H         -48.564140     -128.098969      -40.683941
 H         -50.927097     -130.356766      -43.485359
 C         -47.586853     -127.765015      -40.327637
 C         -46.446507     -128.575653      -39.933258
 C         -47.144043     -126.478561      -40.960018
 C         -45.322708     -128.781631      -41.095741
 C         -46.147076     -126.596657      -42.077549
 C         -44.848431     -127.285614      -41.595840
 H         -46.762779     -129.558380      -39.700676
 H         -45.907539     -128.275757      -38.985416
 H         -48.053860     -126.049980      -41.199905
 H         -46.866550     -125.707001      -40.128746
 H         -45.864212     -129.259308      -41.939804
 H         -44.438274     -129.198395      -40.588566
 H         -45.813622     -125.642342      -42.418282
 H         -46.443478     -127.280334      -42.780914
 H         -44.043121     -127.389145      -42.397125
 H         -44.350609     -126.800621      -40.711586
