20
 generated by VMD
 C         -32.188137      -94.495911      -25.412266
 N         -33.312729      -94.833054      -25.265551
 H         -33.964680      -95.013336      -28.268085
 H         -31.127247      -94.410095      -25.477444
 C         -34.256100      -94.093185      -28.845518
 C         -35.641983      -93.607346      -28.615582
 C         -33.464508      -93.492615      -29.938526
 C         -35.792770      -92.131233      -28.826141
 C         -33.650768      -91.984520      -30.041714
 C         -35.097008      -91.561714      -30.141380
 H         -36.028717      -93.640526      -27.611826
 H         -36.240417      -94.201614      -29.268541
 H         -32.418186      -93.630867      -29.657013
 H         -33.678814      -93.949448      -30.932228
 H         -35.202068      -91.794746      -27.972256
 H         -36.732838      -91.664490      -28.791355
 H         -32.864761      -91.633492      -30.761871
 H         -33.356789      -91.650238      -29.073591
 H         -35.030548      -90.517906      -30.187569
 H         -35.651764      -91.901405      -31.043211
