20
 generated by VMD
 C         -51.164379     -130.824356      -46.192345
 N         -50.361256     -130.183441      -46.852680
 H         -48.223660     -132.200073      -44.447338
 H         -51.563103     -131.387207      -45.373245
 C         -48.061481     -132.412628      -43.396896
 C         -48.573681     -133.790176      -42.995056
 C         -48.084686     -131.176361      -42.444927
 C         -48.253387     -133.998016      -41.494564
 C         -47.886711     -131.582626      -40.989700
 C         -48.621864     -132.830475      -40.618523
 H         -48.118362     -134.472015      -43.644203
 H         -49.710518     -133.769379      -43.188831
 H         -47.371086     -130.291977      -42.649227
 H         -49.037674     -130.675064      -42.277687
 H         -47.166019     -134.231247      -41.483948
 H         -48.708237     -134.961441      -41.191357
 H         -48.211239     -130.841980      -40.224079
 H         -46.787895     -131.634537      -40.838982
 H         -48.290768     -133.178787      -39.584305
 H         -49.675461     -132.811890      -40.767471
