20
 generated by VMD
 C         -41.847607     -120.270607      -34.551025
 N         -42.347672     -121.280334      -34.264534
 H         -43.645679     -120.014343      -37.479031
 H         -41.573177     -119.267548      -34.578636
 C         -43.890217     -119.239037      -38.166958
 C         -43.114273     -118.913536      -39.453159
 C         -45.223919     -118.471672      -38.110077
 C         -43.981758     -118.830917      -40.709248
 C         -46.044044     -118.578987      -39.464260
 C         -45.228123     -117.975815      -40.594044
 H         -42.351162     -119.763565      -39.458958
 H         -42.624516     -117.978767      -39.135639
 H         -45.919159     -118.900932      -37.278839
 H         -45.030312     -117.475693      -37.727844
 H         -44.133530     -119.861626      -41.083912
 H         -43.405891     -118.348671      -41.601151
 H         -46.836388     -117.928062      -39.351994
 H         -46.433918     -119.539352      -39.616570
 H         -45.913181     -118.005371      -41.461086
 H         -44.907749     -116.964134      -40.416557
