20
 generated by VMD
 C         -59.810558     -172.008469      -55.229542
 N         -59.680199     -173.089676      -54.791798
 H         -63.089039     -169.925415      -55.973648
 H         -59.772438     -171.009384      -55.612629
 C         -63.595127     -169.330856      -56.756744
 C         -62.783115     -168.332230      -57.462418
 C         -64.999969     -169.474075      -57.169464
 C         -63.176937     -167.922516      -58.834053
 C         -65.364799     -169.088730      -58.558983
 C         -64.721794     -167.644226      -58.885403
 H         -61.852436     -168.814026      -57.565460
 H         -62.628223     -167.327957      -56.809734
 H         -65.087654     -170.540421      -57.015854
 H         -65.568192     -168.845352      -56.387321
 H         -62.853378     -168.752625      -59.510086
 H         -62.617947     -167.078812      -59.169319
 H         -66.444862     -169.064941      -58.713432
 H         -64.831169     -169.767044      -59.166218
 H         -64.861725     -167.166702      -59.836136
 H         -65.071724     -166.938004      -58.085312
