20
 generated by VMD
 C         -49.675529     -131.803543      -46.582352
 N         -50.092812     -132.598007      -47.359604
 H         -48.068687     -132.532745      -44.273685
 H         -49.176723     -131.242905      -45.792664
 C         -48.620453     -133.239334      -43.640289
 C         -49.487469     -134.457932      -44.031517
 C         -49.073235     -132.609558      -42.343990
 C         -49.494659     -135.492935      -42.842159
 C         -49.080372     -133.617386      -41.172245
 C         -49.851398     -134.814072      -41.439873
 H         -49.075485     -134.759918      -44.915371
 H         -50.537743     -134.169647      -44.269096
 H         -48.305077     -131.797806      -42.131020
 H         -50.093140     -132.028275      -42.418972
 H         -48.481686     -136.040573      -42.733826
 H         -50.309559     -136.211563      -43.206776
 H         -49.548851     -133.253189      -40.270462
 H         -48.093704     -133.869125      -41.013073
 H         -49.797714     -135.621536      -40.599403
 H         -50.923328     -134.676575      -41.302399
