20
 generated by VMD
 C         -70.436104     -197.749664      -64.573357
 N         -69.869171     -197.927200      -65.575722
 H         -73.046448     -196.597733      -66.050430
 H         -71.116112     -197.733093      -63.752285
 C         -73.385696     -195.871475      -66.801727
 C         -73.141251     -194.411285      -66.371124
 C         -74.464401     -196.064117      -67.787666
 C         -72.908356     -193.440857      -67.535568
 C         -74.764191     -194.844299      -68.624107
 C         -73.524338     -193.968140      -68.842552
 H         -72.307198     -194.336716      -65.678757
 H         -73.936241     -194.147537      -65.524551
 H         -74.142967     -196.763535      -68.495201
 H         -75.352150     -196.508850      -67.432884
 H         -71.841377     -193.222458      -67.656136
 H         -73.362259     -192.508057      -67.280190
 H         -75.416588     -194.137756      -68.119995
 H         -75.255928     -195.071976      -69.581505
 H         -72.606209     -194.528152      -69.249893
 H         -73.676750     -193.213806      -69.519211
