20
 generated by VMD
 C         -38.745747     -109.823441      -35.958565
 N         -37.839615     -109.080521      -36.019356
 H         -42.217731     -110.595955      -37.182659
 H         -39.447422     -110.606789      -36.036373
 C         -42.091702     -111.008476      -36.210758
 C         -41.720104     -112.489052      -36.207127
 C         -42.345314     -110.353737      -34.925106
 C         -41.336521     -113.177055      -34.828754
 C         -41.630798     -110.930687      -33.678604
 C         -41.793045     -112.442131      -33.709740
 H         -41.094147     -112.766312      -37.027973
 H         -42.673676     -112.940559      -36.577538
 H         -41.856003     -109.325600      -35.103912
 H         -43.462399     -110.338387      -34.780735
 H         -40.230244     -113.277885      -34.812237
 H         -41.793320     -114.219566      -34.818073
 H         -42.119892     -110.608101      -32.751869
 H         -40.551201     -110.757652      -33.657990
 H         -41.346397     -112.773674      -32.806904
 H         -42.935101     -112.609306      -33.722839
