20
 generated by VMD
 C         -68.039574     -189.609451      -67.086746
 N         -67.002579     -189.082520      -67.220726
 H         -68.682869     -188.957321      -63.324806
 H         -69.001167     -189.980972      -66.788460
 C         -69.673714     -188.709000      -63.645382
 C         -70.526962     -190.000534      -63.813225
 C         -70.414734     -187.486511      -63.074463
 C         -71.960434     -189.807114      -64.215820
 C         -71.858665     -187.374084      -63.671116
 C         -72.731277     -188.646194      -63.504417
 H         -70.617218     -190.512192      -62.864231
 H         -70.021973     -190.593323      -64.542992
 H         -70.360123     -187.455658      -61.953564
 H         -69.858757     -186.577011      -63.292629
 H         -72.462494     -190.775223      -63.975876
 H         -71.936508     -189.614838      -65.300316
 H         -71.741730     -187.137634      -64.711708
 H         -72.551666     -186.677933      -63.306515
 H         -73.007072     -188.880264      -62.458351
 H         -73.636978     -188.365509      -64.120903
