20
 generated by VMD
 C         -60.187202     -156.201660      -55.515335
 N         -60.514042     -155.117950      -55.480110
 H         -59.851402     -157.718628      -52.645607
 H         -59.867935     -157.212906      -55.369980
 C         -58.895111     -157.591904      -52.062519
 C         -58.269051     -156.174713      -52.233799
 C         -58.023140     -158.785965      -51.728416
 C         -57.195850     -156.038757      -51.156109
 C         -56.972801     -158.444885      -50.692211
 C         -56.236961     -157.251617      -51.046078
 H         -59.109455     -155.511261      -52.060936
 H         -58.009289     -156.090546      -53.343655
 H         -58.579090     -159.654327      -51.481842
 H         -57.566273     -159.039536      -52.731426
 H         -57.797058     -155.873413      -50.168827
 H         -56.632496     -155.112778      -51.423328
 H         -56.311985     -159.307571      -50.658123
 H         -57.544170     -158.359253      -49.627914
 H         -55.545948     -157.138000      -50.179211
 H         -55.664936     -157.349121      -51.944237
