20
 generated by VMD
 C         -31.832937      -76.149414      -24.331224
 N         -31.450911      -76.577499      -25.339439
 H         -29.556335      -77.524689      -22.395563
 H         -32.638424      -75.835564      -23.530802
 C         -28.588276      -77.922157      -22.176004
 C         -27.567410      -78.146515      -23.299774
 C         -28.422930      -78.431007      -20.813030
 C         -26.165222      -77.919418      -22.773724
 C         -26.929108      -78.244514      -20.416847
 C         -25.907171      -78.803917      -21.522509
 H         -27.763695      -77.471169      -24.084196
 H         -27.654612      -79.223175      -23.627348
 H         -28.946522      -77.663086      -20.172682
 H         -28.838503      -79.417099      -20.811810
 H         -26.051922      -76.865715      -22.590494
 H         -25.347975      -78.057152      -23.499962
 H         -26.678499      -78.742142      -19.436785
 H         -26.772572      -77.170456      -20.209362
 H         -24.898220      -78.735275      -21.138243
 H         -26.079269      -79.876183      -21.719654
