20
 generated by VMD
 C         -29.747038      -91.202499      -25.267054
 N         -29.003418      -92.005585      -24.973370
 H         -32.467949      -90.513580      -26.684668
 H         -30.405546      -90.427650      -25.634743
 C         -33.115303      -90.454773      -27.525400
 C         -34.218693      -91.560532      -27.376678
 C         -33.153286      -89.597771      -28.731487
 C         -35.631207      -90.831413      -27.546516
 C         -34.500122      -88.875267      -28.748217
 C         -35.571587      -89.957191      -28.744091
 H         -34.222836      -92.098724      -26.471378
 H         -34.149014      -92.363449      -28.078014
 H         -32.314625      -88.832939      -28.766329
 H         -32.938061      -90.190010      -29.647326
 H         -35.871132      -90.384674      -26.527182
 H         -36.362068      -91.711594      -27.676897
 H         -34.571636      -88.223015      -29.662504
 H         -34.652435      -88.313446      -27.789219
 H         -36.595036      -89.469818      -28.819248
 H         -35.477562      -90.477592      -29.715433
