20
 generated by VMD
 C         -38.745308     -109.675072      -36.151764
 N         -37.759602     -109.060364      -36.179344
 H         -42.050724     -110.119011      -36.823723
 H         -39.551369     -110.350105      -36.236706
 C         -42.062389     -110.835243      -35.994427
 C         -41.769753     -112.213737      -36.001854
 C         -42.438744     -110.209595      -34.731937
 C         -40.880005     -112.766891      -34.901978
 C         -41.846672     -110.776711      -33.438015
 C         -41.427525     -112.273560      -33.584370
 H         -41.385254     -112.384308      -37.026543
 H         -42.718868     -112.795433      -36.112305
 H         -42.234688     -109.104156      -34.925858
 H         -43.533081     -110.475266      -34.819874
 H         -39.755268     -112.578453      -34.954723
 H         -40.989456     -113.857475      -34.832325
 H         -42.642998     -110.759712      -32.659367
 H         -40.964512     -110.220039      -33.075344
 H         -40.706669     -112.597588      -32.881748
 H         -42.437534     -112.940918      -33.484413
