20
 generated by VMD
 C         -40.367466     -118.129601      -34.778671
 N         -39.428448     -117.521172      -35.046593
 H         -42.446514     -116.368248      -36.516369
 H         -40.981934     -118.899994      -34.477226
 C         -43.160763     -116.602837      -37.250931
 C         -42.826244     -116.961617      -38.727520
 C         -44.578564     -116.312790      -36.905571
 C         -44.038460     -117.707581      -39.389519
 C         -45.694271     -116.979172      -37.828453
 C         -45.344757     -116.958885      -39.367973
 H         -41.992455     -117.610725      -38.676884
 H         -42.548527     -116.076912      -39.217239
 H         -44.863056     -116.614258      -35.890930
 H         -44.949444     -115.258438      -36.802792
 H         -44.216755     -118.709061      -38.897083
 H         -43.682198     -117.871841      -40.471695
 H         -46.585789     -116.510063      -37.667664
 H         -45.854649     -118.047951      -37.582260
 H         -46.044430     -117.509796      -39.849464
 H         -45.064861     -115.968117      -39.714779
