20
 generated by VMD
 C         -60.686012     -153.348587      -52.085621
 N         -61.347794     -154.176132      -51.545898
 H         -57.752010     -153.828888      -51.695934
 H         -60.050766     -152.537796      -52.477436
 C         -56.860397     -153.366333      -51.259682
 C         -56.382370     -153.911163      -49.963242
 C         -56.119030     -152.213760      -51.831276
 C         -54.843693     -153.671310      -49.678093
 C         -54.564137     -152.277267      -51.732349
 C         -54.150372     -152.495377      -50.273285
 H         -56.629543     -154.928421      -50.152367
 H         -57.000187     -153.445480      -49.172066
 H         -56.390553     -152.112961      -52.911640
 H         -56.491066     -151.287247      -51.441441
 H         -54.335949     -154.596039      -49.884899
 H         -54.753426     -153.772232      -48.560234
 H         -54.210926     -151.345795      -52.097244
 H         -54.104671     -153.214523      -52.251099
 H         -53.080795     -152.384262      -50.118050
 H         -54.508354     -151.621841      -49.722649
