20
 generated by VMD
 C         -44.520000     -122.230331      -36.035923
 N         -43.951405     -121.208961      -35.824539
 H         -45.249584     -122.695091      -39.481743
 H         -44.995590     -123.192375      -36.135597
 C         -44.896614     -121.706009      -39.647823
 C         -43.475174     -121.228905      -39.415337
 C         -45.927158     -120.670280      -39.184368
 C         -43.286488     -119.792389      -40.044590
 C         -45.750832     -119.284721      -39.903553
 C         -44.329834     -118.830093      -39.722500
 H         -42.639275     -122.012894      -39.718315
 H         -43.324188     -121.017014      -38.348293
 H         -46.782383     -121.290405      -39.382881
 H         -45.998795     -120.503731      -38.146446
 H         -43.167450     -119.970337      -41.162758
 H         -42.288063     -119.320496      -39.903198
 H         -46.490952     -118.636253      -39.559196
 H         -46.181107     -119.371437      -40.909359
 H         -44.205830     -117.975693      -40.328770
 H         -44.110378     -118.487602      -38.741276
