20
 generated by VMD
 C         -12.074380      -37.514606       -7.573740
 N         -11.020610      -37.797894       -7.611903
 H         -12.466838      -41.121426       -8.362272
 H         -13.595354      -40.416729       -7.242507
 C         -13.564761      -40.953804       -8.231319
 C         -14.312550      -42.231197       -8.199959
 C         -14.099639      -40.061802       -9.336853
 C         -15.708337      -41.864849       -7.827330
 C         -15.560797      -39.801952       -9.142609
 C         -16.383867      -41.035881       -8.934778
 H         -13.870326      -42.883110       -7.443267
 H         -14.324311      -42.827927       -9.129704
 H         -13.573213      -39.133568       -9.364762
 H         -13.832786      -40.538803      -10.283155
 H         -15.662589      -41.350479       -6.884703
 H         -16.307493      -42.772648       -7.652986
 H         -15.920175      -39.381439      -10.048381
 H         -15.650441      -39.024845       -8.306815
 H         -17.385876      -40.761257       -8.629460
 H         -16.453415      -41.651783       -9.858349
