20
 generated by VMD
 C         -76.013763     -202.676971      -66.386528
 N         -76.845062     -203.047775      -65.682854
 H         -75.664711     -200.231552      -69.061836
 H         -75.406021     -202.354584      -67.250938
 C         -74.790321     -199.640259      -69.004044
 C         -74.840302     -198.262360      -68.429245
 C         -73.797951     -200.035965      -70.014412
 C         -73.439362     -197.670868      -68.573586
 C         -73.172882     -199.017792      -70.808899
 C         -72.758286     -197.835800      -69.886078
 H         -75.150826     -198.347214      -67.380981
 H         -75.667366     -197.672150      -69.026604
 H         -73.166786     -200.793839      -69.433510
 H         -74.256584     -200.743729      -70.790726
 H         -72.883507     -198.330246      -67.890625
 H         -73.416779     -196.662979      -68.243721
 H         -73.931656     -198.558380      -71.479652
 H         -72.393082     -199.385193      -71.424049
 H         -71.737022     -198.001266      -69.722534
 H         -72.892754     -196.891342      -70.431427
