20
 generated by VMD
 C         -31.161062      -75.597176      -21.382492
 N         -32.307121      -75.439110      -21.568594
 H         -27.936693      -75.609787      -20.049786
 H         -30.187902      -75.680046      -21.733746
 C         -27.105400      -75.462288      -20.772251
 C         -26.639202      -76.559410      -21.617441
 C         -26.270079      -74.290184      -20.464499
 C         -25.738581      -76.103020      -22.789032
 C         -25.435835      -73.814842      -21.731813
 C         -24.751108      -75.005325      -22.492662
 H         -27.507214      -77.254280      -21.879536
 H         -26.128693      -77.348915      -21.115957
 H         -26.943319      -73.459999      -20.252783
 H         -25.440977      -74.412621      -19.664612
 H         -26.455494      -75.726006      -23.553883
 H         -25.193129      -76.957794      -23.292206
 H         -24.791862      -72.942375      -21.567472
 H         -26.080000      -73.339485      -22.488647
 H         -24.365946      -74.618736      -23.444080
 H         -24.008930      -75.545013      -21.987375
