20
 generated by VMD
 C         -52.912464     -146.821396      -45.232166
 N         -52.364471     -147.287140      -44.307598
 H         -54.766235     -146.749680      -47.708717
 H         -53.407032     -146.524704      -46.131485
 C         -54.467289     -145.874908      -48.365154
 C         -53.149174     -145.828537      -49.141079
 C         -55.103783     -144.664246      -47.948330
 C         -53.395035     -144.767593      -50.281693
 C         -55.270477     -143.625595      -49.082481
 C         -54.006802     -143.380585      -49.804352
 H         -52.970776     -146.870422      -49.635891
 H         -52.331619     -145.579269      -48.495144
 H         -56.062939     -145.091278      -47.609802
 H         -54.466499     -144.229309      -47.094368
 H         -54.151436     -145.107468      -51.078846
 H         -52.267635     -144.616470      -50.686901
 H         -55.735283     -142.710083      -48.576588
 H         -56.043839     -144.017563      -49.798512
 H         -54.118889     -142.672348      -50.648521
 H         -53.214668     -142.925125      -49.161911
