20
 generated by VMD
 C         -21.683420      -66.637344      -16.770800
 N         -20.940687      -66.924324      -15.923334
 H         -24.000074      -64.816147      -17.875189
 H         -22.078638      -66.579544      -17.767876
 C         -24.635414      -65.496201      -18.560371
 C         -24.038301      -65.983795      -19.872911
 C         -25.946957      -66.001076      -18.034872
 C         -24.338688      -67.449951      -20.176497
 C         -25.960657      -67.492989      -18.119741
 C         -25.606476      -67.999199      -19.571711
 H         -22.997725      -65.867638      -19.841190
 H         -24.395525      -65.360970      -20.734585
 H         -25.883835      -65.824219      -16.886038
 H         -26.735207      -65.330193      -18.384014
 H         -23.405184      -68.067978      -19.866680
 H         -24.386620      -67.583641      -21.283962
 H         -26.969973      -67.899605      -17.709375
 H         -25.177137      -67.779434      -17.411633
 H         -25.807314      -69.079826      -19.664394
 H         -26.361500      -67.496994      -20.160969
