20
 generated by VMD
 C          -7.063657      -23.200867        2.748040
 N          -6.117478      -22.635151        2.698977
 H          -6.584610      -21.339342       -0.060798
 H          -8.082151      -21.669266       -0.908736
 C          -7.067037      -21.262295       -1.061414
 C          -6.379949      -22.148676       -2.129769
 C          -7.320946      -19.803261       -1.564618
 C          -7.091174      -22.169050       -3.469233
 C          -7.988702      -19.885235       -2.958425
 C          -7.259328      -20.731552       -3.965541
 H          -6.150074      -23.132244       -1.798257
 H          -5.298882      -21.777344       -2.265542
 H          -7.963882      -19.310270       -0.813011
 H          -6.351832      -19.385969       -1.734870
 H          -8.087686      -22.568062       -3.299170
 H          -6.521422      -22.723307       -4.236743
 H          -8.068820      -18.814682       -3.259401
 H          -8.959442      -20.426586       -2.864526
 H          -7.909145      -20.773808       -4.850008
 H          -6.265584      -20.393351       -4.298736
