20
 generated by VMD
 C         -59.381775     -158.105499      -56.118183
 N         -58.925510     -158.646027      -57.064228
 H         -60.685062     -158.009857      -52.954514
 H         -59.725674     -157.665634      -55.207729
 C         -59.938686     -158.773956      -52.945000
 C         -58.575924     -158.517944      -52.582928
 C         -60.464725     -160.086349      -53.199631
 C         -58.034378     -159.607407      -51.586868
 C         -59.996567     -161.042114      -52.153515
 C         -58.462566     -160.983734      -51.994488
 H         -58.453964     -157.568024      -52.085030
 H         -57.887672     -158.597931      -53.435341
 H         -61.527489     -160.143372      -53.155010
 H         -60.304321     -160.323166      -54.220943
 H         -58.375111     -159.477753      -50.580158
 H         -56.919636     -159.522812      -51.483292
 H         -60.478031     -161.945709      -52.379639
 H         -60.265110     -160.817947      -51.102203
 H         -58.178181     -161.717041      -51.151455
 H         -57.987736     -161.496719      -52.900856
