20
 generated by VMD
 C         -38.557423     -112.554985      -35.772034
 N         -38.132359     -111.998428      -36.714901
 H         -40.864410     -114.671928      -34.930748
 H         -38.833241     -113.312004      -34.984112
 C         -41.710518     -114.356506      -35.453175
 C         -41.935246     -114.376831      -36.981251
 C         -42.648556     -113.419548      -34.744034
 C         -43.352512     -114.685226      -37.340385
 C         -44.101768     -113.754196      -35.076836
 C         -44.323376     -113.751999      -36.698181
 H         -41.279686     -115.235725      -37.239441
 H         -41.346096     -113.543015      -37.386543
 H         -42.560951     -113.596222      -33.664555
 H         -42.451069     -112.384315      -34.840687
 H         -43.708752     -115.700150      -37.150787
 H         -43.427708     -114.577858      -38.452080
 H         -44.949455     -113.043671      -34.768452
 H         -44.268818     -114.842560      -34.761486
 H         -45.360569     -114.092850      -36.877747
 H         -44.186554     -112.658905      -37.036320
