20
 generated by VMD
 C         -48.154995     -135.337189      -46.121513
 N         -47.483112     -135.006378      -47.010937
 H         -51.440639     -134.581619      -45.546394
 H         -48.666004     -135.514069      -45.214020
 C         -51.276386     -135.506607      -44.944042
 C         -51.944366     -136.839508      -45.444267
 C         -51.302166     -135.408432      -43.519829
 C         -51.381351     -138.084167      -44.751575
 C         -50.703922     -136.665649      -42.717808
 C         -51.399338     -137.983185      -43.232639
 H         -51.827518     -136.987244      -46.477337
 H         -53.079777     -136.887268      -45.258209
 H         -50.649261     -134.577179      -43.286793
 H         -52.269554     -135.261230      -43.043213
 H         -50.379837     -138.293121      -45.236454
 H         -52.061375     -138.922729      -45.049473
 H         -50.733192     -136.507507      -41.625835
 H         -49.574677     -136.679657      -42.937092
 H         -51.018581     -138.847244      -42.803326
 H         -52.385464     -138.200470      -42.817074
