20
 generated by VMD
 C         -57.430359     -162.983963      -56.411465
 N         -57.136913     -162.303253      -57.264500
 H         -59.578087     -164.333618      -54.946476
 H         -57.649342     -163.660233      -55.576668
 C         -60.573727     -164.504715      -54.765903
 C         -61.058937     -164.684647      -53.349918
 C         -61.642254     -164.614731      -55.903625
 C         -62.349136     -163.768951      -53.099453
 C         -62.893131     -163.639191      -55.608833
 C         -63.453056     -163.963379      -54.180016
 H         -60.351089     -164.635544      -52.513683
 H         -61.323166     -165.785995      -53.213749
 H         -61.267021     -164.453522      -56.992306
 H         -61.920433     -165.666733      -55.972721
 H         -62.085842     -162.743744      -53.132721
 H         -62.766720     -164.055878      -52.137527
 H         -63.635628     -163.925751      -56.444111
 H         -62.623779     -162.534897      -55.858112
 H         -64.355042     -163.284286      -53.959126
 H         -63.792812     -165.087799      -54.207993
