20
 generated by VMD
 C         -55.755695     -149.039856      -45.629002
 N         -55.207493     -149.661423      -44.785000
 H         -54.434605     -148.236038      -48.326038
 H         -56.082062     -148.384216      -46.474190
 C         -54.271610     -147.306046      -48.859737
 C         -53.134335     -147.255127      -49.818951
 C         -54.911007     -146.088699      -48.512531
 C         -53.509888     -146.482132      -51.144558
 C         -55.184021     -145.120911      -49.760490
 C         -53.970039     -144.988693      -50.766220
 H         -52.836418     -148.272675      -50.233669
 H         -52.286560     -146.738281      -49.357185
 H         -55.797062     -146.238998      -47.921158
 H         -54.277828     -145.589844      -47.884796
 H         -54.149193     -146.935333      -51.845009
 H         -52.511509     -146.308517      -51.605850
 H         -55.418613     -144.154663      -49.368004
 H         -56.147266     -145.384079      -50.283306
 H         -54.237068     -144.311569      -51.534752
 H         -53.154469     -144.578339      -50.127110
