20
 generated by VMD
 C         -47.346676     -137.393539      -46.190830
 N         -47.155304     -136.746231      -47.103813
 H         -50.342392     -136.532471      -44.824303
 H         -47.329052     -137.821228      -45.210255
 C         -51.210033     -137.197296      -44.770390
 C         -51.369339     -137.923416      -46.041874
 C         -52.381142     -136.893600      -43.812939
 C         -52.106178     -139.274338      -45.750713
 C         -53.099316     -138.285995      -43.630211
 C         -53.373817     -139.086395      -44.864388
 H         -50.392075     -138.090012      -46.610878
 H         -52.031242     -137.318024      -46.642265
 H         -52.105137     -136.513260      -42.818623
 H         -53.073334     -136.177170      -44.187466
 H         -51.409576     -139.933441      -45.179443
 H         -52.310101     -139.946411      -46.666447
 H         -54.160236     -138.149307      -43.046974
 H         -52.598286     -138.780121      -42.799667
 H         -53.852943     -140.088379      -44.468296
 H         -54.247799     -138.524658      -45.404251
