20
 generated by VMD
 C         -59.300346     -158.221329      -56.050644
 N         -58.940342     -158.600708      -57.066467
 H         -60.583340     -157.959335      -52.467506
 H         -59.718460     -157.887360      -55.081161
 C         -60.004402     -158.735275      -53.026039
 C         -58.508030     -158.628143      -52.614437
 C         -60.580883     -160.118134      -53.285709
 C         -58.046661     -159.584778      -51.554718
 C         -60.029003     -161.069092      -52.161930
 C         -58.446289     -161.058609      -51.997063
 H         -58.318512     -157.622986      -52.301514
 H         -57.992161     -158.873535      -53.520695
 H         -61.660870     -160.026016      -53.223701
 H         -60.297020     -160.617966      -54.257843
 H         -58.556717     -159.288589      -50.571671
 H         -57.048256     -159.489960      -51.462826
 H         -60.260857     -162.167252      -52.268661
 H         -60.541275     -160.707306      -51.264324
 H         -58.129391     -161.802063      -51.231133
 H         -58.003582     -161.239227      -52.918385
