20
 generated by VMD
 C         -49.923584     -127.509560      -39.309250
 N         -49.064590     -126.734726      -39.291363
 H         -46.921589     -126.393593      -41.640198
 H         -50.506969     -128.388290      -39.500889
 C         -46.189945     -125.622421      -41.220917
 C         -45.123997     -126.154694      -40.403889
 C         -46.694542     -124.210632      -41.187534
 C         -43.947208     -125.297287      -40.672592
 C         -45.444180     -123.313049      -41.391659
 C         -44.225193     -123.752838      -40.596939
 H         -45.039074     -127.201721      -40.780804
 H         -45.415344     -126.154335      -39.285057
 H         -47.402370     -124.251663      -41.949596
 H         -46.983967     -124.042885      -40.150127
 H         -43.520485     -125.478401      -41.711300
 H         -43.117157     -125.578804      -39.941395
 H         -45.671829     -122.344109      -41.245190
 H         -45.278931     -123.572540      -42.372238
 H         -43.351612     -123.245529      -41.010811
 H         -44.335976     -123.437538      -39.574135
