20
 generated by VMD
 C         -40.528336     -117.221344      -34.517918
 N         -39.471786     -116.782555      -34.824398
 H         -41.637447     -116.281113      -37.335415
 H         -41.447506     -117.717819      -34.199146
 C         -42.681965     -116.506996      -37.714779
 C         -42.972240     -116.335251      -39.181561
 C         -43.706833     -116.112221      -36.702316
 C         -44.320621     -116.977158      -39.526516
 C         -44.929169     -116.973640      -36.939819
 C         -45.432228     -116.696053      -38.496166
 H         -42.178001     -116.776276      -39.784718
 H         -42.900928     -115.309082      -39.570602
 H         -43.493652     -116.218422      -35.686317
 H         -43.963032     -115.046890      -36.885727
 H         -44.257130     -118.084152      -39.744305
 H         -44.737492     -116.519379      -40.405895
 H         -45.799129     -116.664139      -36.376560
 H         -44.570377     -117.962456      -36.696026
 H         -46.280895     -117.339874      -38.767540
 H         -45.680550     -115.696121      -38.522320
