20
 generated by VMD
 C         -21.935530      -55.283463      -17.357023
 N         -22.170671      -55.518993      -18.483290
 H         -22.323301      -57.468323      -14.311318
 H         -21.969322      -54.895462      -16.314011
 C         -21.221083      -57.583416      -14.215516
 C         -20.974764      -58.302876      -12.815278
 C         -20.112955      -57.890232      -15.274078
 C         -20.744953      -59.882450      -13.065668
 C         -20.033369      -59.402489      -15.565668
 C         -19.853611      -60.239933      -14.286586
 H         -21.870657      -58.186745      -12.193741
 H         -20.077381      -57.825157      -12.264834
 H         -20.242981      -57.327919      -16.192570
 H         -19.176592      -57.546597      -14.879560
 H         -21.703638      -60.248302      -13.357354
 H         -20.552443      -60.511784      -12.189163
 H         -19.252243      -59.701382      -16.255096
 H         -20.946123      -59.801075      -16.034777
 H         -19.989088      -61.289593      -14.518892
 H         -18.805140      -60.107956      -13.848289
