20
 generated by VMD
 C         -38.501926     -108.698288      -36.700962
 N         -37.347004     -108.802544      -36.728897
 H         -42.090790     -109.890732      -36.545811
 H         -39.575974     -108.804131      -36.720249
 C         -41.973225     -110.420578      -35.572540
 C         -41.317825     -111.837013      -35.807816
 C         -42.639942     -110.124405      -34.235626
 C         -40.636356     -112.236053      -34.561523
 C         -41.944630     -110.750557      -33.116096
 C         -41.494022     -112.133614      -33.240471
 H         -40.583725     -111.760132      -36.626099
 H         -42.127335     -112.449776      -36.121887
 H         -42.809597     -109.041641      -34.208977
 H         -43.715309     -110.525406      -34.327477
 H         -39.657219     -111.643730      -34.355942
 H         -40.442707     -113.267189      -34.704292
 H         -42.577309     -110.721397      -32.227612
 H         -41.084698     -110.042572      -32.903759
 H         -40.927742     -112.411385      -32.299526
 H         -42.371666     -112.885773      -33.233963
