20
 generated by VMD
 C         -57.713791     -166.150345      -56.457047
 N         -58.238171     -166.953934      -55.732330
 H         -60.623444     -165.171417      -54.665001
 H         -57.234859     -165.425659      -57.079506
 C         -61.537266     -165.474670      -55.118149
 C         -61.797722     -166.711731      -55.847431
 C         -62.425827     -164.318893      -55.417709
 C         -63.248737     -167.110443      -55.969242
 C         -63.881336     -164.696762      -55.686451
 C         -64.063065     -165.939896      -56.507626
 H         -61.299828     -167.571564      -55.201782
 H         -61.142216     -166.735626      -56.677059
 H         -62.525021     -163.721283      -54.523701
 H         -61.992062     -163.628036      -56.196404
 H         -63.652725     -167.287827      -54.919109
 H         -63.278248     -167.980179      -56.613155
 H         -64.454147     -163.775879      -56.258312
 H         -64.446152     -164.813354      -54.684772
 H         -65.158249     -166.311539      -56.530266
 H         -63.855373     -165.730972      -57.631481
