20
 generated by VMD
 C         -72.267555     -199.255020      -65.059052
 N         -71.123688     -199.205811      -64.929092
 H         -71.815338     -196.345459      -66.739891
 H         -73.313057     -199.433136      -64.980339
 C         -72.564194     -195.855667      -67.342606
 C         -72.882843     -194.523468      -66.996765
 C         -72.885834     -196.491730      -68.592178
 C         -73.829803     -193.862564      -68.021011
 C         -74.328812     -196.129807      -69.019562
 C         -74.903183     -194.893723      -68.326843
 H         -71.992836     -193.897430      -67.101959
 H         -73.099030     -194.457275      -65.984520
 H         -72.080467     -196.097763      -69.344414
 H         -72.651459     -197.627930      -68.575829
 H         -73.390762     -193.517258      -68.930710
 H         -74.323402     -193.068054      -67.458115
 H         -74.903275     -197.038544      -68.762924
 H         -74.482552     -196.049927      -70.086746
 H         -75.682411     -194.465897      -69.086212
 H         -75.441635     -195.232361      -67.537613
