20
 generated by VMD
 C         -51.865334     -129.904861      -45.244839
 N         -51.735531     -129.701813      -46.402897
 H         -48.549454     -129.887817      -43.130352
 H         -52.278458     -130.069992      -44.275906
 C         -47.861652     -130.228104      -42.439400
 C         -47.883575     -131.601089      -41.809006
 C         -47.347721     -129.055435      -41.679836
 C         -46.639389     -131.955383      -41.067638
 C         -46.088535     -129.341537      -40.810955
 C         -46.276115     -130.736679      -40.096176
 H         -48.103672     -132.317535      -42.523964
 H         -48.770580     -131.559372      -41.050529
 H         -47.202339     -128.175888      -42.335785
 H         -48.085030     -128.817780      -40.989521
 H         -45.766701     -132.015335      -41.669773
 H         -46.781197     -132.765518      -40.373112
 H         -45.897888     -128.436081      -40.280083
 H         -45.202625     -129.462997      -41.540554
 H         -45.396301     -130.961166      -39.494789
 H         -47.112656     -130.564713      -39.449581
