20
 generated by VMD
 C         -78.762909     -204.211304      -70.458405
 N         -79.869385     -204.547470      -70.446037
 H         -76.605354     -203.459808      -68.657944
 H         -77.654900     -203.995041      -70.289680
 C         -75.772186     -203.161789      -69.217575
 C         -75.744286     -201.759232      -69.716759
 C         -74.467934     -203.898102      -68.877228
 C         -74.647751     -201.622467      -70.783195
 C         -73.248184     -202.920242      -69.092545
 C         -73.187119     -202.086899      -70.350105
 H         -75.585297     -200.992172      -68.939102
 H         -76.754608     -201.549026      -70.115219
 H         -74.434959     -204.185837      -67.805984
 H         -74.346886     -204.785843      -69.469543
 H         -74.647652     -200.712616      -71.331345
 H         -74.947067     -202.379288      -71.493484
 H         -72.290863     -203.561844      -69.036629
 H         -73.282326     -202.385559      -68.156982
 H         -72.638474     -201.084778      -70.034866
 H         -72.624352     -202.692154      -71.124184
