20
 generated by VMD
 C          -9.305654      -24.563389        1.111958
 N          -9.793437      -25.346188        1.722451
 H          -6.920833      -23.216776       -0.610593
 H          -8.402689      -22.701021       -1.330181
 C          -7.366633      -23.045786       -1.657642
 C          -7.495792      -24.351149       -2.452145
 C          -6.580918      -21.922752       -2.402114
 C          -8.011145      -24.100298       -3.877362
 C          -7.095333      -21.718283       -3.850086
 C          -7.047397      -23.075888       -4.625238
 H          -8.222337      -24.991081       -1.993681
 H          -6.481847      -24.712132       -2.429308
 H          -6.670994      -21.024233       -1.818788
 H          -5.497255      -22.187626       -2.497435
 H          -9.062647      -23.722778       -3.805807
 H          -7.888917      -25.097561       -4.428660
 H          -6.408067      -20.979284       -4.278803
 H          -8.139790      -21.317451       -3.911639
 H          -7.354519      -22.883106       -5.626081
 H          -6.045123      -23.527050       -4.730623
