20
 generated by VMD
 C         -60.187927     -157.359970      -56.009251
 N         -59.809361     -158.023087      -56.916027
 H         -60.202721     -157.560837      -52.592396
 H         -60.607521     -156.691971      -55.265625
 C         -59.286762     -158.112732      -52.783741
 C         -57.958580     -157.692551      -52.245754
 C         -59.572487     -159.572983      -53.171776
 C         -57.657928     -158.617706      -51.100559
 C         -59.222294     -160.370239      -51.914986
 C         -57.888298     -160.128494      -51.323013
 H         -58.077217     -156.731598      -51.798653
 H         -57.053783     -157.595642      -52.924809
 H         -60.626362     -159.726410      -53.446865
 H         -58.867867     -159.733414      -53.957249
 H         -58.200916     -158.187729      -50.188065
 H         -56.680851     -158.666702      -50.706043
 H         -59.286083     -161.448029      -52.036644
 H         -60.110474     -160.177917      -51.254463
 H         -57.862724     -160.807480      -50.360401
 H         -57.099407     -160.544800      -51.884071
