20
 generated by VMD
 C         -23.484299      -53.081005      -12.907355
 N         -23.106800      -52.592243      -13.922752
 H         -20.462807      -55.001507      -14.363839
 H         -23.873652      -53.236839      -11.817895
 C         -19.371815      -54.734734      -14.103714
 C         -18.904655      -53.252178      -14.091293
 C         -18.442194      -55.884327      -13.964483
 C         -17.753904      -52.981136      -13.066474
 C         -17.185951      -55.450939      -13.200242
 C         -16.748014      -54.022354      -13.425039
 H         -19.843042      -52.653366      -13.908547
 H         -18.540659      -52.881489      -15.068336
 H         -18.974836      -56.727554      -13.462211
 H         -18.189623      -56.176563      -15.035560
 H         -18.149281      -53.020668      -12.041850
 H         -17.261372      -52.013023      -13.237614
 H         -16.434027      -56.180721      -13.515916
 H         -17.349535      -55.607342      -12.106107
 H         -15.862061      -53.789768      -12.922648
 H         -16.583778      -53.921268      -14.490376
