20
 generated by VMD
 C         -45.066288     -122.805725      -35.380650
 N         -45.457447     -123.843086      -35.106522
 H         -45.132843     -122.830620      -39.085724
 H         -44.713947     -121.894814      -35.760429
 C         -44.884399     -121.764008      -39.382378
 C         -43.534969     -121.394249      -39.536526
 C         -45.938255     -120.703583      -39.476089
 C         -43.317463     -120.553528      -40.901386
 C         -45.772362     -119.994690      -40.800262
 C         -44.316418     -119.492630      -41.114399
 H         -43.017860     -122.380211      -39.700722
 H         -43.036140     -120.875702      -38.730576
 H         -46.984848     -121.183342      -39.462868
 H         -45.835842     -120.193520      -38.481869
 H         -43.228565     -121.172897      -41.783745
 H         -42.322544     -120.165108      -40.892448
 H         -46.600471     -119.311218      -40.957710
 H         -46.082001     -120.619499      -41.568642
 H         -44.385345     -119.131210      -42.162434
 H         -44.147217     -118.577415      -40.409473
