20
 generated by VMD
 C         -69.061523     -187.639786      -67.784363
 N         -67.923927     -187.393845      -67.675697
 H         -68.131340     -187.523911      -63.903881
 H         -70.077560     -187.885040      -67.996872
 C         -69.156616     -187.509933      -63.497860
 C         -69.155441     -188.000778      -62.070518
 C         -70.407646     -186.739319      -64.013832
 C         -70.283951     -188.973221      -61.965847
 C         -71.575150     -187.712982      -63.762989
 C         -71.559509     -188.302887      -62.320187
 H         -69.332863     -187.123917      -61.329880
 H         -68.109581     -188.308838      -61.913433
 H         -70.681526     -185.821762      -63.514214
 H         -70.316490     -186.286636      -65.067863
 H         -70.397850     -189.364639      -60.928566
 H         -70.202095     -189.800034      -62.651871
 H         -71.427216     -188.534958      -64.482132
 H         -72.524323     -187.244705      -64.099449
 H         -71.750763     -187.541641      -61.468288
 H         -72.354164     -188.968628      -62.346149
