20
 generated by VMD
 C         -35.269688      -97.681793      -25.561813
 N         -35.536667      -97.575455      -26.711887
 H         -35.754585      -94.628647      -27.856859
 H         -34.853199      -97.744591      -24.643417
 C         -35.367580      -94.639412      -28.859577
 C         -35.897995      -95.605011      -29.925779
 C         -33.978218      -94.102867      -29.009184
 C         -35.650955      -94.918648      -31.251270
 C         -33.801281      -93.445641      -30.425558
 C         -34.244152      -94.453789      -31.439081
 H         -36.916779      -95.882446      -29.740292
 H         -35.238289      -96.495636      -29.762365
 H         -33.763443      -93.345657      -28.258936
 H         -33.215366      -94.879883      -28.971277
 H         -36.453228      -94.228180      -31.501656
 H         -35.687267      -95.797775      -32.023518
 H         -32.746590      -93.313873      -30.457129
 H         -34.324898      -92.412163      -30.537292
 H         -33.974632      -94.170555      -32.494926
 H         -33.666401      -95.308861      -31.479242
