20
 generated by VMD
 C         -50.810753     -129.773468      -46.183224
 N         -50.850071     -130.300507      -45.161079
 H         -48.009537     -131.973251      -44.452011
 H         -50.745663     -129.399933      -47.220089
 C         -47.922707     -131.825714      -43.352505
 C         -48.187191     -132.990463      -42.510052
 C         -47.971859     -130.503998      -42.626385
 C         -47.696190     -132.992355      -41.069542
 C         -47.352547     -130.511169      -41.223530
 C         -47.900749     -131.685135      -40.408615
 H         -47.751041     -133.820374      -43.045151
 H         -49.329845     -133.184586      -42.490124
 H         -47.468727     -129.675110      -43.271057
 H         -49.009995     -130.244324      -42.492371
 H         -46.620388     -133.334702      -41.030098
 H         -48.213299     -133.821686      -40.521423
 H         -47.568966     -129.680374      -40.577312
 H         -46.218365     -130.533844      -41.209724
 H         -47.374077     -131.694168      -39.401043
 H         -48.962856     -131.707947      -40.316616
