20
 generated by VMD
 C         -67.471581     -192.517899      -67.060318
 N         -68.571289     -192.731903      -66.799606
 H         -69.847054     -190.257034      -65.192413
 H         -66.477524     -192.259171      -67.024490
 C         -70.889824     -190.184036      -65.109177
 C         -71.679375     -190.829391      -66.238350
 C         -71.611664     -189.705597      -63.847088
 C         -72.613312     -191.918320      -65.643776
 C         -73.115295     -189.965332      -64.031609
 C         -73.337959     -191.485748      -64.457603
 H         -71.062881     -191.265503      -66.953590
 H         -72.265137     -190.036469      -66.659348
 H         -71.262772     -190.220963      -63.001389
 H         -71.324707     -188.658142      -63.638699
 H         -72.018425     -192.787201      -65.460304
 H         -73.266212     -192.186462      -66.477379
 H         -73.413689     -189.216415      -64.796677
 H         -73.572334     -189.769150      -63.083595
 H         -73.295074     -192.040161      -63.545151
 H         -74.548279     -191.579086      -64.646812
