20
 generated by VMD
 C         -40.960548     -100.868164      -32.846317
 N         -41.814262     -101.334480      -32.238953
 H         -38.555412     -102.859985      -32.210094
 H         -40.250305     -100.496880      -33.524906
 C         -37.491848     -102.807137      -32.000389
 C         -36.289043     -102.699600      -32.878567
 C         -37.218987     -102.944962      -30.489414
 C         -35.158043     -101.784164      -32.272072
 C         -36.331802     -101.741463      -30.155710
 C         -34.931728     -101.854935      -30.876554
 H         -36.534569     -102.168266      -33.803017
 H         -35.879177     -103.653542      -33.172298
 H         -38.196491     -102.902435      -29.917467
 H         -36.677040     -103.827774      -30.123955
 H         -35.513535     -100.797928      -32.520710
 H         -34.256336     -101.973259      -32.777264
 H         -36.110546     -101.689354      -29.060074
 H         -36.889397     -100.797440      -30.387775
 H         -34.274727     -101.151947      -30.503242
 H         -34.523312     -102.815399      -30.550150
