20
 generated by VMD
 C         -50.780167     -129.627075      -45.932209
 N         -50.911167     -130.486679      -45.226456
 H         -48.415417     -131.268906      -44.092442
 H         -50.797695     -129.011398      -46.844116
 C         -47.972942     -131.429214      -43.181942
 C         -48.328117     -132.620468      -42.412411
 C         -47.980236     -130.110336      -42.429996
 C         -47.489132     -132.754547      -41.200436
 C         -47.106960     -130.224136      -41.145542
 C         -47.413483     -131.489151      -40.276443
 H         -48.049438     -133.528091      -42.913525
 H         -49.473209     -132.531769      -42.258961
 H         -47.639606     -129.210831      -43.058758
 H         -49.058067     -129.846924      -42.109726
 H         -46.442909     -132.933304      -41.426594
 H         -47.766598     -133.619751      -40.592430
 H         -47.028889     -129.290283      -40.577637
 H         -46.065498     -130.305801      -41.575523
 H         -46.609108     -131.724838      -39.537075
 H         -48.434303     -131.366837      -39.782597
