20
 generated by VMD
 C          -9.715510      -24.840670        0.581976
 N         -10.561814      -25.309528        0.040098
 H          -6.134948      -24.055708       -0.882661
 H          -7.768701      -23.618109       -0.971041
 C          -6.949376      -23.813206       -1.597034
 C          -7.197516      -25.094023       -2.514059
 C          -6.620778      -22.605478       -2.384004
 C          -8.189435      -24.823837       -3.749929
 C          -7.553752      -22.369709       -3.607878
 C          -7.610007      -23.630249       -4.495205
 H          -7.761235      -25.799746       -1.945655
 H          -6.195011      -25.477781       -2.788561
 H          -6.747804      -21.802244       -1.673001
 H          -5.552124      -22.641014       -2.766869
 H          -9.208621      -24.680742       -3.403048
 H          -8.101877      -25.680031       -4.438879
 H          -7.134864      -21.581005       -4.223912
 H          -8.565193      -22.075031       -3.350897
 H          -8.317494      -23.454632       -5.299596
 H          -6.583222      -23.829863       -4.935110
