20
 generated by VMD
 C         -13.741557      -28.732878       -6.918717
 N         -13.226993      -28.868959       -7.899068
 H         -11.968189      -30.724770       -4.952690
 H         -10.583420      -29.847570       -4.494035
 C         -10.946742      -30.846113       -4.609201
 C         -10.030384      -31.521332       -5.586560
 C         -10.929064      -31.502287       -3.173954
 C          -8.649385      -31.849520       -5.015558
 C          -9.504627      -32.078804       -2.640981
 C          -8.753959      -32.716728       -3.781610
 H          -9.739217      -30.921944       -6.373928
 H         -10.555235      -32.422203       -6.024946
 H         -11.333859      -30.805483       -2.427430
 H         -11.632501      -32.330463       -3.164934
 H          -8.119073      -30.923357       -4.805493
 H          -8.088543      -32.356529       -5.768754
 H          -9.774047      -32.814636       -1.811854
 H          -8.949119      -31.305464       -2.152128
 H          -7.721084      -32.896976       -3.455783
 H          -9.177804      -33.668781       -3.977002
