20
 generated by VMD
 C         -38.312054     -109.667702      -36.456005
 N         -37.643780     -108.998009      -35.797970
 H         -41.868721     -111.087585      -37.272388
 H         -38.785355     -110.328712      -37.139339
 C         -41.881203     -111.434494      -36.245487
 C         -42.060173     -113.005241      -36.289215
 C         -41.930752     -110.606209      -35.027435
 C         -41.822971     -113.567863      -34.843704
 C         -42.060177     -111.369904      -33.782265
 C         -42.568394     -112.725891      -33.871876
 H         -41.381565     -113.494064      -36.956470
 H         -43.090733     -113.096733      -36.595787
 H         -41.072262     -109.936989      -35.161690
 H         -42.728790     -109.909462      -35.241440
 H         -40.813148     -113.679626      -34.563732
 H         -42.245682     -114.650230      -34.662430
 H         -42.417057     -110.846870      -32.915161
 H         -41.042858     -111.559494      -33.528168
 H         -42.429455     -113.195831      -32.988232
 H         -43.647533     -112.734612      -34.099285
