20
 generated by VMD
 C         -12.673364      -30.199167       -8.209243
 N         -13.246879      -30.739750       -7.424361
 H         -11.091217      -30.438658       -5.336407
 H         -10.692816      -31.124302       -3.626949
 C         -10.832708      -31.368336       -4.663999
 C          -9.511200      -31.950117       -5.182098
 C         -12.031274      -32.413960       -4.732826
 C          -9.106325      -33.229488       -4.546373
 C         -11.574337      -33.712021       -4.117135
 C         -10.254136      -34.239094       -4.517729
 H          -8.820394      -31.148813       -5.112045
 H          -9.632973      -32.047291       -6.296056
 H         -12.969793      -32.015396       -4.307357
 H         -12.246178      -32.673450       -5.775672
 H          -8.821754      -33.026009       -3.501743
 H          -8.243003      -33.722748       -4.978294
 H         -12.298901      -34.529297       -4.225104
 H         -11.518010      -33.628925       -3.039661
 H         -10.004054      -35.101082       -3.848363
 H         -10.382298      -34.644154       -5.554359
