20
 generated by VMD
 C         -10.987144      -34.164547       -8.549260
 N         -11.160927      -33.177628       -9.069504
 H         -11.467512      -38.045849       -8.000937
 H         -12.118966      -37.155525       -6.657380
 C         -12.365756      -38.018291       -7.296921
 C         -12.482302      -39.440151       -6.610619
 C         -13.687015      -37.728569       -8.065862
 C         -13.661448      -39.331501       -5.553017
 C         -14.915453      -37.765965       -7.134985
 C         -14.948465      -39.092419       -6.351309
 H         -11.600123      -39.745285       -6.065679
 H         -12.758542      -40.172241       -7.360637
 H         -13.565145      -36.753880       -8.530301
 H         -13.862944      -38.460670       -8.894495
 H         -13.484623      -38.499470       -4.867098
 H         -13.702039      -40.242691       -5.027252
 H         -15.825818      -37.614925       -7.756996
 H         -14.853692      -36.849186       -6.473197
 H         -15.830677      -39.146282       -5.642651
 H         -15.098515      -39.885139       -7.102926
