20
 generated by VMD
 C          -2.130137      -16.576187        2.416997
 N          -1.551713      -17.503948        2.657368
 H          -5.024547      -16.539597        0.776144
 H          -4.823086      -17.738886       -0.554756
 C          -5.524102      -17.146961       -0.023227
 C          -6.301518      -16.418369       -1.084000
 C          -6.340230      -18.197195        0.785798
 C          -7.195724      -17.357306       -1.903936
 C          -7.110086      -19.157047       -0.110841
 C          -8.024255      -18.405680       -1.107764
 H          -5.695442      -15.894492       -1.791488
 H          -6.960531      -15.629608       -0.622570
 H          -5.721750      -18.790440        1.536897
 H          -7.043335      -17.660082        1.449893
 H          -6.569925      -17.828726       -2.689987
 H          -7.883832      -16.682995       -2.544456
 H          -7.694394      -19.824909        0.515453
 H          -6.483374      -19.875830       -0.689991
 H          -8.378939      -19.156300       -1.830411
 H          -8.878380      -18.012939       -0.605887
