20
 generated by VMD
 C         -36.497887      -97.821503      -26.721823
 N         -35.989491      -98.195473      -25.719833
 H         -36.247490      -95.168457      -28.408394
 H         -37.062778      -97.423889      -27.464638
 C         -35.393478      -95.327324      -29.079334
 C         -35.701653      -96.177681      -30.280807
 C         -34.210098      -94.504356      -29.123484
 C         -35.376980      -95.414330      -31.577251
 C         -33.872726      -93.727119      -30.396439
 C         -33.975857      -94.825691      -31.570910
 H         -36.679909      -96.632111      -30.237785
 H         -34.971779      -97.024132      -30.066893
 H         -34.391716      -93.712654      -28.416754
 H         -33.295826      -95.070976      -28.877129
 H         -36.120132      -94.670868      -31.730183
 H         -35.472702      -96.178947      -32.409031
 H         -32.810329      -93.338196      -30.282738
 H         -34.489483      -92.781082      -30.513041
 H         -33.813545      -94.364456      -32.558445
 H         -33.183571      -95.664207      -31.383289
