20
 generated by VMD
 C         -63.386856     -174.825287      -55.451984
 N         -62.583622     -174.399780      -56.146606
 H         -65.216606     -173.333221      -57.814220
 H         -64.232765     -175.143784      -54.890682
 C         -64.801926     -172.411758      -58.292950
 C         -64.929909     -171.195343      -57.562073
 C         -64.560852     -172.485336      -59.768486
 C         -64.066864     -170.020538      -58.168224
 C         -63.456470     -171.523453      -60.187923
 C         -63.969803     -170.069931      -59.706104
 H         -64.754250     -171.265366      -56.561836
 H         -65.959122     -170.692200      -57.766869
 H         -64.301437     -173.483704      -60.086304
 H         -65.392532     -172.300079      -60.363747
 H         -63.023315     -170.043777      -57.583885
 H         -64.615112     -169.082748      -57.822987
 H         -63.328979     -171.710938      -61.294342
 H         -62.494606     -171.807526      -59.763737
 H         -63.449802     -169.224197      -60.203159
 H         -65.024437     -170.085236      -60.112629
