20
 generated by VMD
 C         -48.942616     -133.143219      -47.198589
 N         -48.194168     -133.179367      -48.016220
 H         -48.481640     -134.660019      -43.868801
 H         -49.610535     -132.880707      -46.392597
 C         -49.541019     -134.927353      -43.799103
 C         -49.865345     -136.202271      -44.404610
 C         -50.632240     -134.318176      -43.010601
 C         -50.316254     -137.257004      -43.335545
 C         -51.022591     -135.286041      -41.883171
 C         -51.414051     -136.700211      -42.447044
 H         -48.999561     -136.530930      -45.052860
 H         -50.631336     -135.968582      -45.087814
 H         -50.216270     -133.372711      -42.535275
 H         -51.452316     -134.025681      -43.619755
 H         -49.541344     -137.523392      -42.592461
 H         -50.700428     -138.146393      -43.908871
 H         -52.001991     -134.839081      -41.511967
 H         -50.322262     -135.400131      -40.958328
 H         -51.733002     -137.397568      -41.562965
 H         -52.448029     -136.641220      -42.889915
