20
 generated by VMD
 C         -68.605263     -185.375488      -67.069717
 N         -67.691620     -184.641739      -67.036591
 H         -69.006897     -188.351746      -64.729927
 H         -69.427971     -186.035843      -67.129700
 C         -69.353348     -187.908829      -63.779846
 C         -69.416039     -186.450989      -63.780781
 C         -70.295868     -188.586807      -62.851292
 C         -69.547890     -185.856888      -62.405415
 C         -70.372986     -187.986237      -61.411415
 C         -70.501389     -186.489990      -61.351242
 H         -70.227089     -186.092468      -64.486977
 H         -68.459572     -186.087067      -64.335335
 H         -71.272415     -188.746658      -63.336945
 H         -69.959976     -189.599182      -62.767780
 H         -69.950066     -184.879349      -62.673988
 H         -68.611595     -185.693665      -61.883083
 H         -69.455124     -188.258377      -60.829525
 H         -71.324364     -188.453888      -61.033775
 H         -71.549713     -186.317810      -61.673996
 H         -70.089058     -186.017090      -60.478840
