20
 generated by VMD
 C         -11.065090      -38.624043       -7.241551
 N         -11.886621      -37.863373       -7.064665
 H         -12.683361      -41.667755       -9.042397
 H         -13.367601      -40.335361       -8.201818
 C         -13.658679      -41.292099       -8.761746
 C         -14.504191      -42.310593       -8.086166
 C         -14.306585      -40.775497      -10.057337
 C         -15.944788      -41.869022       -7.822418
 C         -15.709978      -40.226082       -9.732421
 C         -16.540012      -41.281937       -9.086186
 H         -14.117544      -42.585995       -7.128553
 H         -14.602726      -43.220196       -8.690478
 H         -13.755374      -40.015430      -10.559727
 H         -14.463237      -41.601337      -10.742787
 H         -15.977578      -41.128105       -6.988304
 H         -16.485777      -42.754333       -7.576589
 H         -16.107143      -39.828934      -10.734228
 H         -15.651427      -39.396358       -9.089819
 H         -17.492666      -40.788097       -8.768698
 H         -16.841154      -42.137032       -9.743309
