20
 generated by VMD
 C         -19.579615      -57.822220      -17.057476
 N         -19.250263      -58.400261      -17.990318
 H         -22.027920      -60.082779      -17.144739
 H         -19.871162      -57.426662      -16.196638
 C         -22.728001      -60.557518      -16.348310
 C         -23.959263      -61.460510      -16.696775
 C         -21.931963      -60.878681      -15.130486
 C         -23.665236      -62.980186      -16.549026
 C         -21.711502      -62.400162      -15.004546
 C         -22.956009      -63.299385      -15.177371
 H         -24.180428      -61.259842      -17.762882
 H         -24.860998      -61.158298      -16.150455
 H         -21.038416      -60.279858      -14.963441
 H         -22.507851      -60.658253      -14.213025
 H         -23.088928      -63.347359      -17.461796
 H         -24.612143      -63.533993      -16.539879
 H         -21.376255      -62.529377      -14.008143
 H         -20.963032      -62.776283      -15.709310
 H         -22.666924      -64.362762      -15.100751
 H         -23.763144      -63.095360      -14.378034
