20
 generated by VMD
 C         -11.953729      -25.948015       -0.087582
 N         -12.953829      -26.204733       -0.537361
 H          -9.807184      -26.835905       -3.127311
 H          -9.563575      -25.741220       -4.549775
 C          -9.034491      -26.193569       -3.681067
 C          -7.993813      -27.273268       -4.141865
 C          -8.333852      -25.116285       -2.803778
 C          -6.763301      -26.635582       -4.734976
 C          -7.136223      -24.460146       -3.582095
 C          -6.122605      -25.569502       -3.832689
 H          -8.418380      -27.976049       -4.956428
 H          -7.843854      -27.930054       -3.263190
 H          -9.094843      -24.380320       -2.606969
 H          -8.056466      -25.417423       -1.750850
 H          -6.891840      -26.221848       -5.759807
 H          -5.984128      -27.429790       -4.838253
 H          -6.645782      -23.735044       -2.904949
 H          -7.489645      -23.988235       -4.536484
 H          -5.274127      -25.227261       -4.404066
 H          -5.828966      -26.106064       -2.932768
