20
 generated by VMD
 C         -19.482195      -62.331482      -17.574036
 N         -20.115995      -62.254623      -16.616127
 H         -22.238741      -64.110481      -16.635386
 H         -18.891441      -62.561344      -18.368826
 C         -23.109436      -64.659058      -17.097862
 C         -23.570833      -64.190361      -18.379974
 C         -24.182371      -65.177879      -16.113022
 C         -24.568548      -65.133339      -19.148895
 C         -25.169958      -66.025208      -16.915855
 C         -25.805914      -65.533539      -18.234776
 H         -22.605585      -64.095612      -19.045572
 H         -23.920725      -63.073753      -18.375616
 H         -23.787542      -65.846291      -15.390106
 H         -24.639154      -64.378296      -15.556983
 H         -24.040272      -66.042595      -19.451265
 H         -25.049620      -64.642372      -20.026312
 H         -25.977592      -66.362343      -16.238285
 H         -24.763409      -67.014069      -17.206556
 H         -26.460592      -66.328926      -18.632637
 H         -26.416618      -64.622665      -18.001345
