20
 generated by VMD
 C         -39.957027     -116.816002      -34.621559
 N         -39.415607     -115.805649      -34.513840
 H         -41.344875     -116.434761      -37.897659
 H         -40.494595     -117.701721      -34.790958
 C         -42.472309     -116.132088      -37.889488
 C         -43.182167     -115.728081      -39.156059
 C         -43.243416     -115.894928      -36.562702
 C         -44.463600     -116.583183      -39.242554
 C         -44.593300     -116.544243      -36.604324
 C         -45.346920     -116.432999      -38.023163
 H         -42.528591     -115.865814      -39.997437
 H         -43.535030     -114.727295      -39.117645
 H         -42.635254     -116.466743      -35.763687
 H         -43.295124     -114.806961      -36.359119
 H         -44.239822     -117.667526      -39.262310
 H         -44.963268     -116.368393      -40.258682
 H         -45.291626     -116.176620      -35.897903
 H         -44.439178     -117.557762      -36.408539
 H         -46.202038     -117.247322      -37.934547
 H         -46.003132     -115.575134      -37.890778
