20
 generated by VMD
 C         -57.645905     -162.059998      -56.166168
 N         -57.154591     -162.127350      -57.247826
 H         -59.571659     -164.710052      -55.257198
 H         -58.159771     -161.960815      -55.210255
 C         -60.465115     -164.373169      -54.875027
 C         -60.814026     -164.315323      -53.407021
 C         -61.738117     -164.589539      -55.706200
 C         -61.795700     -163.263000      -53.010216
 C         -62.862534     -163.692688      -55.346291
 C         -63.058674     -163.409622      -53.846310
 H         -59.874462     -164.227432      -52.841183
 H         -61.145473     -165.398590      -53.089714
 H         -61.602551     -164.540115      -56.799644
 H         -61.928467     -165.641525      -55.582470
 H         -61.342003     -162.258133      -53.015999
 H         -62.058617     -163.374359      -51.957977
 H         -63.700996     -164.197235      -55.852020
 H         -62.890060     -162.758575      -56.069729
 H         -63.793259     -162.496048      -53.852299
 H         -63.600658     -164.352631      -53.537762
