20
 generated by VMD
 C         -30.596306      -93.604942      -25.233059
 N         -29.420771      -93.796364      -25.296906
 H         -33.673943      -92.033669      -26.663877
 H         -31.602968      -93.321548      -25.084885
 C         -34.225574      -91.613251      -27.444904
 C         -35.550182      -92.321548      -27.835638
 C         -33.403378      -91.219391      -28.659452
 C         -36.297337      -91.355179      -28.837509
 C         -34.202297      -90.328033      -29.593935
 C         -35.399563      -91.150993      -30.056328
 H         -36.331848      -92.485214      -26.927658
 H         -35.396496      -93.365524      -28.267502
 H         -32.602608      -90.556854      -28.317095
 H         -33.020859      -92.107559      -29.241018
 H         -36.625000      -90.440994      -28.280115
 H         -37.175915      -91.857361      -29.098684
 H         -33.759300      -90.078148      -30.530130
 H         -34.474922      -89.378967      -29.041245
 H         -36.066250      -90.639839      -30.749491
 H         -35.221870      -92.075981      -30.639311
