20
 generated by VMD
 C         -45.740494     -123.684464      -35.537094
 N         -46.308235     -124.717278      -35.425175
 H         -44.738617     -122.128654      -38.074501
 H         -45.058750     -122.773399      -35.661167
 C         -44.691628     -121.604889      -39.084873
 C         -43.344719     -121.396278      -39.669006
 C         -45.827003     -120.676323      -39.517319
 C         -43.472374     -121.260361      -41.192749
 C         -45.835884     -120.549316      -41.030140
 C         -44.477806     -120.282951      -41.586971
 H         -42.551167     -122.116478      -39.312916
 H         -42.985332     -120.422470      -39.334538
 H         -46.743267     -121.161392      -39.268631
 H         -45.673634     -119.704277      -38.993919
 H         -43.672169     -122.247551      -41.622204
 H         -42.473869     -120.997475      -41.745922
 H         -46.531696     -119.610336      -41.444004
 H         -46.307915     -121.545258      -41.374443
 H         -44.470730     -120.140610      -42.689198
 H         -44.200359     -119.323196      -41.211807
