20
 generated by VMD
 C         -57.840637     -167.920227      -55.220791
 N         -56.806084     -168.287918      -54.930538
 H         -61.104305     -166.371811      -55.740753
 H         -58.792362     -167.531464      -55.453106
 C         -62.139156     -166.437943      -56.010757
 C         -62.495296     -167.358383      -57.155437
 C         -62.923359     -165.308136      -55.508881
 C         -64.034821     -167.400772      -57.352768
 C         -64.442039     -165.578125      -55.799526
 C         -64.747635     -165.992477      -57.319084
 H         -61.946812     -168.318176      -56.779152
 H         -62.071613     -166.945435      -57.970745
 H         -62.744598     -165.144638      -54.360619
 H         -62.715538     -164.381973      -55.989029
 H         -64.485916     -168.002258      -56.532173
 H         -64.144409     -167.968307      -58.300568
 H         -65.035637     -164.572128      -55.721313
 H         -64.826744     -166.384827      -55.101112
 H         -65.772789     -166.183014      -57.598907
 H         -64.361259     -165.254349      -58.031845
