20
 generated by VMD
 C         -59.551525     -157.750778      -56.547718
 N         -58.968903     -158.723770      -56.960545
 H         -60.354496     -157.741104      -53.230865
 H         -60.119781     -156.809464      -56.336739
 C         -59.998898     -158.608185      -52.691357
 C         -58.478451     -158.419785      -52.321865
 C         -60.462223     -159.941132      -53.093689
 C         -57.881485     -159.493683      -51.469387
 C         -59.819584     -161.001984      -52.088699
 C         -58.272926     -160.884048      -51.973949
 H         -58.303974     -157.347000      -51.930813
 H         -58.036175     -158.302795      -53.312157
 H         -61.594978     -159.920120      -53.021587
 H         -60.128910     -160.166229      -54.137581
 H         -58.337284     -159.393539      -50.435760
 H         -56.753708     -159.317841      -51.389290
 H         -60.097462     -162.061310      -52.387970
 H         -60.288879     -160.826584      -51.110489
 H         -57.814903     -161.552628      -51.265877
 H         -57.769390     -161.064392      -53.010212
