20
 generated by VMD
 C         -38.849697     -112.432999      -35.786255
 N         -38.407738     -111.836060      -36.690075
 H         -41.318077     -115.171295      -35.043446
 H         -39.360142     -112.860611      -34.875748
 C         -41.512806     -114.251762      -35.450909
 C         -41.810978     -114.234673      -36.946037
 C         -42.368313     -113.300621      -34.756676
 C         -43.312218     -114.655579      -37.254318
 C         -43.894737     -113.517151      -34.937233
 C         -44.149101     -113.607513      -36.538635
 H         -41.227539     -114.998795      -37.530807
 H         -41.655582     -113.177010      -37.401501
 H         -42.170242     -113.336632      -33.663254
 H         -42.153572     -112.265770      -35.014690
 H         -43.369617     -115.674744      -36.948158
 H         -43.474854     -114.642044      -38.385437
 H         -44.408348     -112.589584      -34.546566
 H         -44.267315     -114.486130      -34.586021
 H         -45.179646     -113.857224      -36.600101
 H         -43.893581     -112.623856      -36.914738
