20
 generated by VMD
 C         -78.627342     -209.602707      -76.873375
 N         -77.734161     -209.992508      -77.490173
 H         -79.696007     -211.316727      -73.950012
 H         -79.463287     -209.112000      -76.256927
 C         -79.460419     -212.115601      -73.226074
 C         -78.061775     -212.370590      -72.659462
 C         -80.562248     -213.095169      -73.001778
 C         -78.261154     -212.694534      -71.152519
 C         -80.810219     -213.445602      -71.541901
 C         -79.414322     -213.703674      -70.837517
 H         -77.544334     -211.435791      -72.616966
 H         -77.500763     -213.093735      -73.211533
 H         -81.504509     -212.776184      -73.531380
 H         -80.279190     -213.967743      -73.519615
 H         -78.534836     -211.876297      -70.491814
 H         -77.272774     -213.168884      -70.847908
 H         -81.471420     -214.388046      -71.361763
 H         -81.134705     -212.455688      -70.951210
 H         -79.499680     -213.572159      -69.777603
 H         -79.083488     -214.644440      -71.337532
