20
 generated by VMD
 C         -35.253963      -97.252075      -26.204468
 N         -34.372314      -97.799004      -25.691410
 H         -35.748848      -93.657387      -27.789366
 H         -36.055008      -96.912361      -26.758314
 C         -35.309246      -94.112671      -28.662067
 C         -35.980030      -95.068069      -29.628784
 C         -33.906807      -93.667717      -28.964876
 C         -35.846600      -94.570572      -31.047987
 C         -33.663498      -93.278130      -30.502367
 C         -34.355450      -94.203087      -31.486372
 H         -37.112915      -95.024803      -29.372456
 H         -35.644047      -96.101189      -29.475925
 H         -33.543961      -92.902138      -28.230200
 H         -33.206066      -94.544502      -28.882408
 H         -36.562023      -93.710915      -31.301455
 H         -36.036926      -95.398277      -31.688848
 H         -32.564354      -93.333977      -30.776587
 H         -34.076344      -92.261261      -30.572332
 H         -34.232430      -93.897942      -32.422249
 H         -33.763519      -95.163872      -31.386988
