20
 generated by VMD
 C         -57.945492     -165.592377      -56.351665
 N         -57.238205     -165.000504      -57.074032
 H         -60.334118     -164.640656      -54.354393
 H         -58.537350     -166.146378      -55.652622
 C         -61.301811     -164.894440      -54.666840
 C         -61.892807     -166.194931      -54.390079
 C         -61.845654     -163.907059      -55.662327
 C         -63.369522     -166.328354      -54.706558
 C         -63.336716     -164.012772      -55.755123
 C         -63.739807     -165.478104      -55.972069
 H         -61.809227     -166.468140      -53.334351
 H         -61.433205     -166.895325      -55.134689
 H         -61.549435     -162.768738      -55.452778
 H         -61.424709     -164.131332      -56.678223
 H         -63.940868     -165.941238      -53.752911
 H         -63.697845     -167.435715      -54.856300
 H         -63.551933     -163.520447      -56.783230
 H         -63.760227     -163.697418      -54.838375
 H         -64.836258     -165.550827      -56.216995
 H         -63.297215     -166.045273      -56.889664
