20
 generated by VMD
 C         -22.539564      -54.876553      -16.061722
 N         -23.589537      -55.320602      -16.016640
 H         -19.207556      -54.810425      -15.680214
 H         -21.562830      -54.230869      -16.311205
 C         -19.417465      -55.600441      -14.878606
 C         -19.424271      -55.439926      -13.352269
 C         -18.862953      -56.945541      -15.319283
 C         -19.606232      -56.772026      -12.518273
 C         -19.462996      -58.067036      -14.682320
 C         -19.317219      -58.083290      -13.214412
 H         -20.196707      -54.730747      -13.026418
 H         -18.537626      -54.877865      -13.034307
 H         -18.799404      -56.911049      -16.427879
 H         -17.740843      -57.017803      -15.141036
 H         -20.669657      -56.799332      -12.197294
 H         -19.022709      -56.670979      -11.621971
 H         -19.109797      -59.064217      -15.079099
 H         -20.525459      -58.013813      -14.836076
 H         -19.983673      -58.878380      -12.823983
 H         -18.295149      -58.403961      -12.975671
