20
 generated by VMD
 C         -49.755493     -127.759438      -40.397827
 N         -50.716835     -127.852821      -41.062679
 H         -46.708294     -127.437378      -42.185928
 H         -49.026630     -127.649277      -39.597370
 C         -46.800900     -126.775757      -41.281254
 C         -45.796452     -127.321098      -40.166763
 C         -46.896080     -125.301208      -41.445641
 C         -44.444286     -126.743103      -40.647221
 C         -45.480583     -124.849869      -41.779976
 C         -44.391022     -125.235275      -40.809738
 H         -45.720108     -128.402710      -40.260918
 H         -46.167061     -127.171730      -39.108807
 H         -47.390217     -125.124916      -42.455486
 H         -47.217030     -124.856529      -40.546619
 H         -44.073093     -127.214333      -41.604908
 H         -43.615700     -126.969231      -39.920380
 H         -45.222847     -123.810341      -41.894390
 H         -45.200317     -125.403938      -42.762081
 H         -43.439342     -125.088020      -41.196426
 H         -44.464531     -124.742714      -39.854427
