20
 generated by VMD
 C         -30.505527      -93.927940      -25.416769
 N         -29.448450      -93.670227      -25.030952
 H         -33.767208      -92.564987      -26.722683
 H         -31.464828      -94.032707      -25.732597
 C         -34.220875      -91.972694      -27.539171
 C         -35.718647      -92.184830      -27.804962
 C         -33.409649      -91.376671      -28.663630
 C         -36.397427      -91.457161      -28.991224
 C         -34.192318      -90.454170      -29.653845
 C         -35.480961      -91.018967      -30.087049
 H         -36.242126      -92.038490      -26.858683
 H         -35.801071      -93.301872      -28.011885
 H         -32.550106      -90.811340      -28.245939
 H         -32.858677      -92.163963      -29.187941
 H         -36.944202      -90.594734      -28.622099
 H         -37.270252      -92.088875      -29.438271
 H         -33.409058      -90.227341      -30.370752
 H         -34.362617      -89.487938      -29.201941
 H         -35.946842      -90.216827      -30.713284
 H         -35.301590      -91.876831      -30.858761
