20
 generated by VMD
 C         -12.727060      -28.195847       -4.775687
 N         -13.047153      -27.668247       -5.696359
 H         -10.964519      -30.877136       -3.045557
 H         -11.095546      -29.349781       -3.862032
 C         -10.377698      -30.110384       -3.481302
 C          -9.668510      -30.747774       -4.658720
 C          -9.415102      -29.470821       -2.435359
 C          -8.722459      -29.803043       -5.305716
 C          -8.496803      -28.493076       -3.211172
 C          -7.737345      -29.154026       -4.299950
 H         -10.498550      -31.093546       -5.352449
 H          -9.157459      -31.633236       -4.422176
 H          -9.890660      -28.955519       -1.598907
 H          -8.730796      -30.210627       -1.966901
 H          -9.277258      -29.013767       -5.789422
 H          -8.152231      -30.305515       -6.081841
 H          -7.771913      -28.089836       -2.415623
 H          -9.086900      -27.626816       -3.473513
 H          -7.194444      -28.422756       -4.887957
 H          -7.073895      -29.975777       -3.873512
