20
 generated by VMD
 C         -61.109818     -172.263718      -55.144459
 N         -60.294388     -173.067520      -55.017899
 H         -62.407406     -170.731964      -57.745491
 H         -61.971901     -171.607697      -55.241840
 C         -63.036285     -169.899246      -57.418995
 C         -62.614632     -168.464478      -57.560955
 C         -64.503593     -170.202728      -57.370068
 C         -63.297787     -167.764084      -58.707733
 C         -65.267914     -169.576859      -58.557671
 C         -64.845200     -168.064926      -58.795391
 H         -61.587635     -168.380997      -57.737747
 H         -62.791588     -167.888199      -56.553169
 H         -64.552437     -171.294647      -57.444500
 H         -64.800041     -169.987457      -56.349632
 H         -62.932861     -168.157394      -59.732964
 H         -63.103245     -166.650970      -58.757854
 H         -66.319626     -169.763275      -58.570637
 H         -65.033905     -170.060318      -59.445866
 H         -65.259872     -167.851730      -59.794689
 H         -65.276917     -167.347595      -58.018772
