20
 generated by VMD
 C         -59.017109     -159.472946      -57.277428
 N         -58.267380     -160.174210      -57.940903
 H         -58.850452     -161.636948      -54.951199
 H         -59.750076     -158.891296      -56.672756
 C         -59.484371     -161.554092      -54.086250
 C         -58.801186     -162.041534      -52.810543
 C         -60.840527     -162.203094      -54.491089
 C         -59.947063     -161.927917      -51.712673
 C         -61.855042     -161.895386      -53.335438
 C         -61.405804     -162.426682      -52.024639
 H         -58.052139     -161.196503      -52.568363
 H         -58.421471     -163.088760      -52.784889
 H         -61.120052     -162.013702      -55.471973
 H         -60.782223     -163.334732      -54.485256
 H         -60.055969     -160.917160      -51.299290
 H         -59.607956     -162.607635      -50.806549
 H         -62.873657     -162.230530      -53.718327
 H         -61.993889     -160.752609      -53.311874
 H         -62.075397     -162.168991      -51.155666
 H         -61.334042     -163.528198      -52.113239
