20
 generated by VMD
 C         -38.527454     -108.047012      -36.805660
 N         -38.088081     -108.742844      -37.650513
 H         -41.287533     -108.881149      -35.702686
 H         -38.696106     -107.403389      -35.918861
 C         -41.272907     -109.766083      -34.973171
 C         -40.524860     -110.950279      -35.212727
 C         -42.436100     -109.844910      -34.084354
 C         -40.196194     -111.847946      -34.048809
 C         -42.145531     -110.654724      -32.849815
 C         -41.534840     -112.040916      -33.159000
 H         -39.594967     -110.859039      -35.856194
 H         -41.171986     -111.576019      -35.893078
 H         -42.867954     -108.865692      -33.876755
 H         -43.123123     -110.461365      -34.630260
 H         -39.317814     -111.398514      -33.460991
 H         -39.744713     -112.833702      -34.491524
 H         -43.148552     -110.930824      -32.499958
 H         -41.592915     -110.081978      -32.210304
 H         -41.242996     -112.596657      -32.231544
 H         -42.263309     -112.658798      -33.854965
