20
 generated by VMD
 C         -28.255569      -82.380646      -26.697550
 N         -27.424761      -83.098518      -27.045731
 H         -31.329432      -84.067818      -26.444494
 H         -29.035963      -81.703522      -26.384975
 C         -31.591633      -84.847488      -25.731758
 C         -31.057446      -84.634262      -24.343122
 C         -32.150043      -86.083328      -26.197041
 C         -32.118378      -85.103577      -23.375708
 C         -33.076180      -86.649590      -25.156769
 C         -32.452709      -86.633774      -23.728533
 H         -30.794479      -83.514915      -24.316084
 H         -30.087236      -85.218246      -24.243929
 H         -32.550674      -85.838860      -27.208656
 H         -31.460424      -86.884872      -26.424379
 H         -33.094425      -84.539162      -23.511112
 H         -31.703148      -85.021324      -22.299114
 H         -33.313061      -87.645279      -25.507269
 H         -34.007256      -86.143143      -25.145748
 H         -33.026096      -87.241859      -22.961950
 H         -31.590046      -87.254005      -23.855719
