20
 generated by VMD
 C         -40.137241     -100.707336      -31.841820
 N         -40.868397     -100.278770      -31.011599
 H         -37.749607     -103.505302      -31.757572
 H         -39.268509     -101.151466      -32.313133
 C         -36.975975     -102.711960      -31.769644
 C         -35.848648     -102.269737      -32.613041
 C         -36.740761     -102.375191      -30.353767
 C         -35.609432     -100.776825      -32.572979
 C         -36.474979     -100.895592      -30.231256
 C         -35.347832     -100.299217      -31.166685
 H         -35.926785     -102.543251      -33.653984
 H         -34.887386     -102.684799      -32.178539
 H         -37.689980     -102.640175      -29.765697
 H         -35.920017     -102.878532      -29.922741
 H         -36.539108     -100.160980      -33.016808
 H         -34.658794     -100.467339      -33.094894
 H         -36.191692     -100.664917      -29.285234
 H         -37.376900     -100.278053      -30.499918
 H         -35.374763      -99.186676      -31.263206
 H         -34.383377     -100.664146      -30.739264
