20
 generated by VMD
 C         -12.339891      -27.557133       -4.606346
 N         -13.129889      -28.139198       -5.166133
 H         -10.771093      -30.634691       -2.855015
 H         -11.091590      -29.024130       -3.563977
 C         -10.291921      -29.775230       -3.370913
 C          -9.655083      -30.407759       -4.583968
 C          -9.260671      -29.096380       -2.427901
 C          -8.652274      -29.527636       -5.299506
 C          -8.339514      -28.128698       -3.196282
 C          -7.656909      -28.815731       -4.386044
 H         -10.498067      -30.686495       -5.204746
 H          -9.271158      -31.453737       -4.429567
 H          -9.840026      -28.513071       -1.700302
 H          -8.636975      -29.793783       -1.805110
 H          -9.185319      -28.784405       -5.908034
 H          -8.097994      -30.022213       -6.080983
 H          -7.583926      -27.708527       -2.523449
 H          -8.892439      -27.184828       -3.523396
 H          -7.134365      -28.057777       -4.986156
 H          -6.961277      -29.595551       -4.020438
