20
 generated by VMD
 C         -68.586372     -185.620407      -66.466347
 N         -67.956535     -186.287628      -67.161316
 H         -69.435760     -183.257904      -63.676056
 H         -69.237907     -184.978745      -65.888351
 C         -69.484428     -184.225311      -63.040028
 C         -70.713432     -184.778030      -62.416901
 C         -68.168800     -185.082916      -63.000034
 C         -70.476868     -185.862549      -61.234711
 C         -67.945000     -185.679153      -61.667904
 C         -69.071991     -186.586761      -61.313408
 H         -71.228073     -185.321533      -63.126316
 H         -71.465225     -184.066208      -62.109612
 H         -68.282791     -185.761673      -63.776989
 H         -67.336060     -184.448105      -63.348202
 H         -71.208931     -186.665939      -61.226273
 H         -70.540283     -185.264694      -60.326313
 H         -67.817688     -184.924530      -60.896652
 H         -67.093010     -186.279099      -61.667038
 H         -69.245102     -187.569687      -61.956623
 H         -68.948639     -187.045914      -60.242992
