20
 generated by VMD
 C         -20.952492      -52.296204       -9.596459
 N         -21.315136      -52.314846      -10.719333
 H         -19.279150      -49.667179      -12.073779
 H         -20.636612      -52.073528       -8.701806
 C         -18.258053      -50.048645      -12.194501
 C         -17.863035      -51.417816      -12.582653
 C         -17.288519      -48.906708      -12.200502
 C         -16.798155      -51.290638      -13.670605
 C         -16.576544      -48.861332      -13.575952
 C         -15.786253      -50.157051      -13.813001
 H         -18.702875      -52.043793      -12.956182
 H         -17.474684      -51.889687      -11.724407
 H         -17.817076      -48.012245      -11.895085
 H         -16.598867      -49.045162      -11.356620
 H         -17.371199      -51.124313      -14.595523
 H         -16.268688      -52.262058      -13.738978
 H         -15.802694      -48.143604      -13.552826
 H         -17.315336      -48.605415      -14.352117
 H         -15.255750      -50.032154      -14.812884
 H         -14.929734      -50.235088      -13.071424
