20
 generated by VMD
 C         -59.308811     -158.205811      -56.076801
 N         -58.943790     -158.603271      -57.048607
 H         -60.591419     -157.974136      -52.521030
 H         -59.696968     -157.883499      -55.135204
 C         -59.988346     -158.746780      -53.019115
 C         -58.527561     -158.621628      -52.579700
 C         -60.567741     -160.111633      -53.280518
 C         -58.041157     -159.574127      -51.563660
 C         -60.025883     -161.069061      -52.154011
 C         -58.448605     -161.070862      -52.008511
 H         -58.376308     -157.610062      -52.369057
 H         -58.017391     -158.806168      -53.524433
 H         -61.583923     -159.918274      -53.163628
 H         -60.306004     -160.563492      -54.232712
 H         -58.546116     -159.271912      -50.642220
 H         -56.979820     -159.498230      -51.459644
 H         -60.255676     -162.105087      -52.232021
 H         -60.586349     -160.645828      -51.319027
 H         -58.120914     -161.791809      -51.159695
 H         -57.881947     -161.208328      -52.947811
