20
 generated by VMD
 C         -40.047634      -99.527901      -28.807938
 N         -39.268288     -100.073311      -28.121611
 H         -37.394363      -98.425117      -30.689190
 H         -40.918461      -98.995537      -29.313990
 C         -36.369808      -98.371971      -30.790445
 C         -35.741024      -98.814003      -31.997873
 C         -35.473137      -98.286743      -29.557850
 C         -34.634171      -97.860664      -32.356155
 C         -34.381233      -97.366417      -30.089638
 C         -33.641449      -97.812820      -31.259211
 H         -36.501663      -98.935783      -32.841774
 H         -35.407127      -99.826164      -31.800058
 H         -35.977997      -97.937424      -28.620934
 H         -34.964619      -99.202560      -29.255024
 H         -35.052605      -96.889320      -32.555702
 H         -34.324631      -98.168114      -33.365658
 H         -33.719101      -97.238014      -29.196157
 H         -34.703945      -96.316864      -30.381474
 H         -32.816406      -97.185966      -31.455219
 H         -33.150894      -98.837158      -31.229521
