20
 generated by VMD
 C         -47.340961     -138.903900      -45.687962
 N         -46.870834     -138.562744      -46.635136
 H         -50.598808     -138.321289      -44.863075
 H         -47.745972     -139.515671      -44.877560
 C         -51.571846     -138.781998      -45.069363
 C         -51.794586     -139.090149      -46.555588
 C         -52.911320     -138.434540      -44.356548
 C         -52.979282     -140.178574      -46.769299
 C         -54.081463     -139.384277      -44.636795
 C         -54.297550     -139.699219      -46.150185
 H         -50.878872     -139.432495      -46.952217
 H         -52.071938     -138.138062      -47.013268
 H         -52.761234     -138.444351      -43.248428
 H         -53.162621     -137.412888      -44.699707
 H         -52.850018     -141.136246      -46.287189
 H         -53.050629     -140.365448      -47.867424
 H         -55.042805     -138.927673      -44.316109
 H         -53.911465     -140.317642      -44.118568
 H         -55.007175     -140.491745      -46.261551
 H         -54.465126     -138.655273      -46.680374
