20
 generated by VMD
 C         -51.077023     -130.803406      -46.298458
 N         -50.315613     -130.522629      -47.195847
 H         -48.030632     -132.069000      -44.378914
 H         -52.028378     -130.902802      -45.796047
 C         -48.233250     -132.368546      -43.302078
 C         -48.734806     -133.777405      -43.081490
 C         -48.195187     -131.303360      -42.275139
 C         -48.393848     -134.212601      -41.642281
 C         -47.865490     -131.813385      -40.936115
 C         -48.602177     -133.118851      -40.594742
 H         -48.223949     -134.416382      -43.761612
 H         -49.840641     -133.719498      -43.327999
 H         -47.448013     -130.482666      -42.464527
 H         -49.229546     -130.880020      -42.314266
 H         -47.333893     -134.544098      -41.714718
 H         -48.926594     -135.170685      -41.512318
 H         -47.967091     -130.915344      -40.170387
 H         -46.771099     -132.004074      -40.884472
 H         -48.241932     -133.457092      -39.564552
 H         -49.668663     -132.773392      -40.668480
