20
 generated by VMD
 C          -1.491876      -10.744375        0.767858
 N          -0.877750      -10.517792        1.636842
 H          -3.735157      -12.998457        0.234415
 H          -4.919367      -12.335487        1.309078
 C          -4.391393      -13.284673        1.039907
 C          -3.576392      -13.904772        2.162345
 C          -5.439434      -14.250403        0.460361
 C          -4.430082      -14.545435        3.244339
 C          -6.307890      -14.903017        1.600830
 C          -5.408121      -15.588475        2.655377
 H          -2.947903      -13.113227        2.532828
 H          -2.996201      -14.651776        1.677578
 H          -6.110251      -13.768835       -0.219883
 H          -5.078444      -15.059264       -0.160513
 H          -4.946979      -13.725461        3.745823
 H          -3.674263      -15.034473        3.865509
 H          -7.018242      -15.677495        1.193234
 H          -6.883780      -14.091649        2.055876
 H          -5.999475      -15.999587        3.501708
 H          -4.823850      -16.443478        2.221316
