20
 generated by VMD
 C         -66.777824     -189.630783      -66.522438
 N         -66.236969     -189.431885      -67.534988
 H         -70.433678     -190.275070      -65.772049
 H         -67.386292     -189.981781      -65.705292
 C         -70.759911     -190.101715      -64.699768
 C         -72.022598     -190.808167      -64.102455
 C         -70.404343     -188.688766      -64.149757
 C         -73.180870     -189.861008      -64.059311
 C         -71.674789     -187.966339      -63.729218
 C         -72.813538     -188.742126      -63.161186
 H         -71.866211     -191.062775      -63.105961
 H         -72.208786     -191.735199      -64.571205
 H         -69.763237     -188.933228      -63.284061
 H         -69.711662     -188.168137      -64.742180
 H         -73.979706     -190.400467      -63.454723
 H         -73.466553     -189.518646      -65.039955
 H         -72.055054     -187.360519      -64.583153
 H         -71.458542     -187.156174      -62.906376
 H         -72.554337     -189.086334      -62.207157
 H         -73.681541     -188.158234      -63.030006
