20
 generated by VMD
 C         -58.975300     -159.145844      -57.623913
 N         -58.354725     -160.154266      -57.764179
 H         -58.917870     -161.220474      -54.865799
 H         -59.563484     -158.234467      -57.455544
 C         -59.481346     -161.648758      -54.028843
 C         -58.836037     -161.913315      -52.700680
 C         -60.844707     -162.078568      -54.465336
 C         -59.849670     -161.754852      -51.554718
 C         -61.740387     -161.863266      -53.265827
 C         -61.220928     -162.463623      -51.946964
 H         -58.017311     -161.128754      -52.598610
 H         -58.518192     -163.029602      -52.590927
 H         -61.165588     -161.528046      -55.285892
 H         -60.883572     -163.132065      -54.806114
 H         -60.110661     -160.659210      -51.446526
 H         -59.594231     -162.084122      -50.509762
 H         -62.775227     -162.299149      -53.502613
 H         -61.945663     -160.766846      -53.399872
 H         -61.930542     -162.248306      -51.168301
 H         -61.104641     -163.582794      -52.002045
