20
 generated by VMD
 C         -33.683151      -96.077011      -25.251923
 N         -33.467869      -97.127464      -25.724970
 H         -34.688343      -94.384232      -27.406700
 H         -34.024040      -95.072212      -25.006674
 C         -34.790741      -93.915276      -28.377295
 C         -36.055805      -94.082451      -29.172892
 C         -33.540169      -93.473885      -29.155531
 C         -36.131382      -93.426559      -30.530367
 C         -33.839954      -92.643051      -30.400770
 C         -34.838280      -93.276001      -31.282881
 H         -36.951267      -93.856140      -28.537363
 H         -36.057697      -95.201149      -29.390347
 H         -32.774639      -92.829948      -28.632574
 H         -33.092731      -94.453377      -29.496187
 H         -36.416061      -92.397736      -30.318550
 H         -36.966660      -93.823715      -31.249086
 H         -32.924274      -92.441933      -30.983883
 H         -34.109612      -91.597198      -30.125429
 H         -34.982513      -92.675636      -32.131836
 H         -34.281536      -94.268608      -31.689766
