20
 generated by VMD
 C         -25.770632      -71.209251      -16.979506
 N         -25.930355      -72.005692      -16.147394
 H         -23.876953      -68.957130      -18.935787
 H         -25.623825      -70.515968      -17.755995
 C         -24.608812      -69.271629      -19.697113
 C         -23.921261      -70.337387      -20.482059
 C         -25.885098      -68.477356      -20.046652
 C         -24.906858      -71.206268      -21.304871
 C         -26.787994      -69.400024      -20.900684
 C         -26.062191      -70.245026      -21.923449
 H         -23.326529      -70.945450      -19.708111
 H         -23.240664      -69.838593      -21.271671
 H         -26.416122      -68.096199      -19.184196
 H         -25.764460      -67.491142      -20.622936
 H         -25.357912      -71.990570      -20.622267
 H         -24.362507      -71.634239      -22.115063
 H         -27.578423      -68.937576      -21.480015
 H         -27.429819      -69.912773      -20.205069
 H         -26.629089      -70.958382      -22.560511
 H         -25.689495      -69.600601      -22.757826
