20
 generated by VMD
 C         -10.762926      -37.258125       -8.381783
 N         -10.807844      -36.336746       -7.714867
 H         -13.203300      -37.433674       -7.629964
 H         -14.383935      -38.013374       -6.424425
 C         -13.945001      -38.206215       -7.396018
 C         -13.090659      -39.512814       -7.359663
 C         -15.138449      -38.309631       -8.400908
 C         -13.956879      -40.806690       -7.299627
 C         -15.921836      -39.599815       -8.204586
 C         -15.025696      -40.871456       -8.337101
 H         -12.350426      -39.477634       -6.498342
 H         -12.385416      -39.642361       -8.254040
 H         -15.694008      -37.400543       -8.278679
 H         -14.748436      -38.199425       -9.461839
 H         -14.372721      -40.983822       -6.308843
 H         -13.297304      -41.693893       -7.366254
 H         -16.751915      -39.684490       -8.868988
 H         -16.366869      -39.631672       -7.158139
 H         -15.637794      -41.728733       -8.075054
 H         -14.658723      -41.003666       -9.398967
