20
 generated by VMD
 C         -30.560907      -75.289154      -22.757984
 N         -31.337254      -75.258560      -21.851360
 H         -28.717070      -78.020172      -21.278103
 H         -29.849865      -75.785927      -23.276566
 C         -27.903749      -77.365501      -21.512602
 C         -26.756241      -77.913391      -22.270380
 C         -27.634701      -76.070061      -20.753365
 C         -25.828413      -76.800537      -22.999262
 C         -26.664618      -75.013878      -21.451521
 C         -25.419653      -75.712646      -22.078384
 H         -27.096066      -78.453255      -23.119095
 H         -26.198587      -78.496910      -21.536882
 H         -28.587761      -75.628899      -20.500530
 H         -27.161074      -76.425682      -19.747950
 H         -26.145788      -76.418655      -23.963711
 H         -24.973591      -77.399017      -23.292501
 H         -26.395226      -74.344337      -20.662018
 H         -27.190840      -74.567955      -22.256187
 H         -24.969412      -74.956856      -22.754293
 H         -24.775259      -76.036316      -21.255075
