20
 generated by VMD
 C          -1.780400      -12.997649        0.536854
 N          -1.455560      -13.846713        1.182751
 H          -3.496905      -15.392697        1.934394
 H          -4.030646      -14.976720        0.266183
 C          -4.337550      -15.539837        1.187874
 C          -5.646490      -14.855843        1.791398
 C          -4.598651      -16.988058        0.880849
 C          -6.959949      -15.189526        1.034724
 C          -5.916775      -17.308636        0.183764
 C          -7.118449      -16.732918        0.875145
 H          -5.460235      -13.772429        1.707014
 H          -5.701494      -15.240574        2.832365
 H          -3.820329      -17.423658        0.307739
 H          -4.545211      -17.551199        1.776250
 H          -6.951355      -14.746652        0.025601
 H          -7.879485      -14.900630        1.560516
 H          -6.026399      -18.378490        0.220644
 H          -5.835466      -17.068663       -0.899738
 H          -8.047520      -17.078562        0.381687
 H          -7.152059      -17.129990        1.902247
