20
 generated by VMD
 C         -31.319578      -93.442169      -26.135269
 N         -31.844481      -93.859825      -25.225946
 H         -33.677742      -94.085403      -27.674767
 H         -30.800306      -92.926147      -27.019354
 C         -34.125851      -93.352562      -28.389755
 C         -35.539402      -93.067154      -28.018093
 C         -33.377094      -92.670654      -29.467382
 C         -35.825489      -91.545074      -28.268929
 C         -33.733391      -91.152809      -29.673370
 C         -35.241711      -91.097145      -29.614044
 H         -35.641510      -93.270546      -26.910177
 H         -36.295521      -93.476814      -28.633619
 H         -32.283325      -92.576523      -29.267855
 H         -33.329781      -93.312790      -30.383509
 H         -35.636547      -91.050354      -27.353619
 H         -36.953674      -91.499985      -28.314621
 H         -33.505405      -90.754532      -30.710964
 H         -33.204124      -90.494537      -28.968216
 H         -35.538048      -90.067879      -29.772110
 H         -35.745930      -91.647141      -30.321825
