20
 generated by VMD
 C         -12.348369      -32.180439       -8.638075
 N         -12.719953      -31.198635       -8.962800
 H         -10.402307      -34.583012       -7.173555
 H         -11.342560      -33.595428       -6.117736
 C         -11.105989      -34.609177       -6.405088
 C         -10.408891      -35.382210       -5.286913
 C         -12.386706      -35.375050       -6.878837
 C         -11.246709      -35.579372       -4.031076
 C         -13.320206      -35.643967       -5.624072
 C         -12.499660      -36.267033       -4.474003
 H          -9.582718      -34.767113       -4.863659
 H         -10.071244      -36.355274       -5.619287
 H         -12.934781      -34.682381       -7.547689
 H         -12.142772      -36.314285       -7.391088
 H         -11.512262      -34.628834       -3.552859
 H         -10.593670      -36.252769       -3.418622
 H         -14.171985      -36.268288       -5.914852
 H         -13.659242      -34.624516       -5.339252
 H         -13.136007      -36.457397       -3.531000
 H         -12.249990      -37.268757       -4.833822
