20
 generated by VMD
 C         -39.561897     -105.515076      -37.309673
 N         -40.371429     -104.756348      -36.964840
 H         -39.035378     -108.929131      -35.409893
 H         -38.912071     -106.340645      -37.406898
 C         -39.434650     -108.671631      -34.397137
 C         -38.446732     -108.333626      -33.360104
 C         -40.660133     -109.519562      -33.981583
 C         -38.945290     -108.252068      -31.947557
 C         -41.002529     -109.444199      -32.551613
 C         -39.736935     -109.579659      -31.682814
 H         -38.053459     -107.239670      -33.468666
 H         -37.572525     -109.029907      -33.374355
 H         -41.552238     -109.023102      -34.521313
 H         -40.564999     -110.500916      -34.423054
 H         -39.670284     -107.403862      -31.857405
 H         -38.040367     -108.020355      -31.288914
 H         -41.665188     -110.280128      -32.250046
 H         -41.647266     -108.610924      -32.174480
 H         -39.949261     -109.515312      -30.540693
 H         -39.087891     -110.486259      -31.838299
