20
 generated by VMD
 C         -68.814720     -193.686157      -66.602257
 N         -67.767769     -193.645981      -66.161278
 H         -69.936806     -190.724884      -65.749474
 H         -69.699066     -193.672226      -67.254463
 C         -71.022667     -190.837692      -65.554619
 C         -72.069916     -190.455429      -66.585426
 C         -71.480057     -191.223572      -64.261185
 C         -73.259567     -191.502396      -66.577164
 C         -73.010391     -191.160278      -64.066742
 C         -73.730881     -191.885040      -65.169624
 H         -71.596397     -190.364426      -67.646706
 H         -72.356483     -189.492142      -66.298889
 H         -71.118301     -192.300934      -64.329605
 H         -70.935394     -190.678360      -63.491100
 H         -72.989830     -192.440155      -67.221046
 H         -74.173096     -191.059982      -67.093582
 H         -73.182510     -190.099045      -64.054443
 H         -73.274330     -191.437668      -63.003571
 H         -73.607193     -192.880661      -64.926811
 H         -74.772545     -191.628464      -65.240105
