20
 generated by VMD
 C          -2.563392       -9.007622        0.403133
 N          -1.587853       -9.449872       -0.006463
 H          -2.334529      -11.795609        2.574388
 H          -3.170180      -12.261260        4.070075
 C          -3.143582      -12.495348        2.991972
 C          -2.725001      -13.933219        2.612982
 C          -4.450020      -12.166750        2.256586
 C          -3.839830      -14.955212        3.090559
 C          -5.603343      -13.092630        2.607478
 C          -5.198032      -14.568085        2.498369
 H          -1.815534      -14.287414        3.025012
 H          -2.667288      -14.075096        1.503001
 H          -4.696540      -11.157739        2.666723
 H          -4.219418      -11.973115        1.133955
 H          -3.897769      -14.864284        4.227813
 H          -3.698193      -16.023394        2.856091
 H          -6.456028      -12.839462        2.039135
 H          -5.848904      -12.940250        3.643315
 H          -6.030024      -15.201966        2.837914
 H          -5.180966      -14.722116        1.416572
