20
 generated by VMD
 C         -47.944798     -124.890091      -38.498909
 N         -47.074703     -125.656380      -38.741951
 H         -45.434052     -123.067741      -37.786869
 H         -48.656414     -124.172081      -38.216705
 C         -45.073032     -122.933899      -38.803928
 C         -44.021530     -123.728027      -39.401485
 C         -45.685314     -121.821678      -39.630512
 C         -44.375732     -124.159103      -40.821289
 C         -46.088440     -122.248413      -41.048080
 C         -44.860397     -123.041626      -41.673397
 H         -43.664570     -124.599800      -38.811665
 H         -43.267418     -123.036125      -39.409607
 H         -46.559811     -121.633636      -39.083828
 H         -45.069889     -120.892136      -39.594978
 H         -45.055840     -125.040222      -40.940495
 H         -43.426788     -124.439049      -41.247890
 H         -46.294827     -121.279457      -41.578217
 H         -47.108303     -122.844528      -41.006054
 H         -45.127544     -123.445274      -42.624882
 H         -44.032303     -122.349670      -41.813202
