20
 generated by VMD
 C         -10.755672      -37.172386       -8.443672
 N         -10.816909      -36.371597       -7.698723
 H         -13.375102      -37.366058       -7.617495
 H         -14.300338      -38.095493       -6.333407
 C         -13.946630      -38.236614       -7.405781
 C         -13.096313      -39.492176       -7.370392
 C         -15.097292      -38.278225       -8.356750
 C         -13.936242      -40.782204       -7.261846
 C         -15.872096      -39.614830       -8.204392
 C         -15.052174      -40.843773       -8.305148
 H         -12.457768      -39.524437       -6.523135
 H         -12.512889      -39.509975       -8.253191
 H         -15.792603      -37.418259       -8.155863
 H         -14.736616      -38.194611       -9.413075
 H         -14.351758      -40.916298       -6.257423
 H         -13.207897      -41.625008       -7.394595
 H         -16.566538      -39.603477       -9.048205
 H         -16.456743      -39.546825       -7.262332
 H         -15.691823      -41.726009       -8.112401
 H         -14.660304      -40.944424       -9.327364
