20
 generated by VMD
 C         -30.438410      -74.456650      -21.038830
 N         -30.776352      -75.441475      -20.541622
 H         -27.462523      -74.741203      -19.487736
 H         -30.205587      -73.492638      -21.299698
 C         -26.818481      -74.566887      -20.392176
 C         -26.391031      -75.738152      -21.181576
 C         -25.969942      -73.393585      -20.385494
 C         -25.983984      -75.434891      -22.549620
 C         -25.539225      -72.894150      -21.796270
 C         -25.101812      -74.158081      -22.609503
 H         -27.151230      -76.440399      -21.112955
 H         -25.538713      -76.158287      -20.576956
 H         -26.410507      -72.590187      -19.798031
 H         -25.135834      -73.601997      -19.873318
 H         -26.886408      -75.344139      -23.193327
 H         -25.341045      -76.237885      -23.004097
 H         -24.694338      -72.170837      -21.945831
 H         -26.332375      -72.345261      -22.331738
 H         -25.078804      -73.897743      -23.714170
 H         -24.093576      -74.396385      -22.234468
