20
 generated by VMD
 C         -51.734737     -130.020340      -45.138008
 N         -51.738182     -129.430130      -46.194103
 H         -48.751545     -129.807388      -42.902786
 H         -51.725883     -130.605103      -44.219822
 C         -47.931824     -130.083160      -42.362232
 C         -47.853436     -131.452789      -41.722218
 C         -47.275707     -128.878357      -41.613457
 C         -46.532433     -131.747910      -41.049374
 C         -46.013733     -129.247772      -40.871532
 C         -46.218876     -130.523331      -40.182415
 H         -48.032383     -132.166458      -42.435650
 H         -48.744999     -131.437210      -40.989727
 H         -47.197300     -127.970123      -42.289085
 H         -47.970039     -128.644211      -40.885254
 H         -45.652657     -131.832794      -41.771553
 H         -46.669472     -132.561432      -40.280106
 H         -45.748604     -128.435577      -40.240631
 H         -45.248524     -129.196930      -41.675613
 H         -45.334396     -130.661026      -39.590832
 H         -46.973454     -130.387360      -39.379398
