20
 generated by VMD
 C         -49.779404     -127.762177      -40.410328
 N         -50.718994     -127.860771      -41.074169
 H         -46.735401     -127.459770      -42.171757
 H         -48.991653     -127.630524      -39.655262
 C         -46.813744     -126.777412      -41.255375
 C         -45.774937     -127.326622      -40.151188
 C         -46.907120     -125.307152      -41.458923
 C         -44.449043     -126.756203      -40.653160
 C         -45.458221     -124.855072      -41.776791
 C         -44.396408     -125.249901      -40.826118
 H         -45.702991     -128.436371      -40.249943
 H         -46.154022     -127.165939      -39.217484
 H         -47.386795     -125.141975      -42.407253
 H         -47.232792     -124.842422      -40.444599
 H         -44.070919     -127.115189      -41.620106
 H         -43.692806     -126.973854      -39.888691
 H         -45.225163     -123.811790      -41.946884
 H         -45.228268     -125.374718      -42.761703
 H         -43.388664     -125.020111      -41.194775
 H         -44.447330     -124.759956      -39.837334
