20
 generated by VMD
 C         -49.946774     -143.542252      -44.480595
 N         -49.275681     -143.547729      -45.378452
 H         -52.190777     -141.599609      -45.427238
 H         -50.697586     -143.572723      -43.735706
 C         -52.747036     -141.635208      -46.360401
 C         -52.156387     -141.571747      -47.797840
 C         -54.181561     -141.163071      -46.221622
 C         -53.106857     -142.255936      -48.790039
 C         -55.101006     -141.881332      -47.209896
 C         -54.542892     -141.735947      -48.584454
 H         -51.149284     -141.998428      -47.916058
 H         -52.070084     -140.443390      -48.084690
 H         -54.521103     -141.208939      -45.135479
 H         -54.174171     -140.085739      -46.432907
 H         -52.908436     -143.370071      -48.493431
 H         -52.976162     -142.184982      -49.887398
 H         -56.001446     -141.308182      -46.977131
 H         -55.393353     -142.957581      -47.072849
 H         -55.157711     -142.208008      -49.395164
 H         -54.484486     -140.661682      -48.897541
