20
 generated by VMD
 C          -5.939751      -20.969475        1.958306
 N          -6.045953      -22.071466        1.836710
 H          -5.101619      -18.692503       -0.906592
 H          -5.910179      -20.118015       -0.190664
 C          -5.793027      -19.489452       -1.145977
 C          -5.481862      -20.471239       -2.224132
 C          -7.133693      -18.759283       -1.398130
 C          -6.598428      -21.495710       -2.328681
 C          -8.278484      -19.798462       -1.411704
 C          -8.003181      -20.957445       -2.284019
 H          -4.487484      -20.945787       -1.946886
 H          -5.335799      -20.049093       -3.220970
 H          -7.381768      -18.115339       -0.529500
 H          -7.081669      -18.162399       -2.317148
 H          -6.500431      -22.188471       -1.466994
 H          -6.414371      -22.084351       -3.275562
 H          -9.226912      -19.319242       -1.763352
 H          -8.385174      -20.132542       -0.372970
 H          -8.746161      -21.768839       -2.127231
 H          -8.215635      -20.559149       -3.313641
