20
 generated by VMD
 C         -20.669811      -52.276051       -9.628152
 N         -21.217516      -51.966869      -10.599039
 H         -18.441990      -49.783478      -10.868878
 H         -20.137495      -52.648563       -8.865885
 C         -17.905809      -49.825623      -11.840529
 C         -17.375378      -51.150497      -12.229668
 C         -17.442066      -48.457512      -12.296023
 C         -16.979284      -51.166092      -13.678464
 C         -16.633841      -48.635654      -13.613150
 C         -15.957422      -50.006870      -13.828302
 H         -18.039791      -52.027504      -12.023682
 H         -16.448132      -51.218651      -11.600089
 H         -18.319738      -47.808964      -12.411189
 H         -16.812325      -47.901669      -11.532673
 H         -17.806425      -51.044636      -14.373786
 H         -16.577806      -52.150986      -13.776517
 H         -15.776541      -47.963062      -13.621144
 H         -17.286291      -48.294296      -14.472434
 H         -15.493890      -50.006943      -14.778204
 H         -15.128830      -50.166088      -13.169771
