20
 generated by VMD
 C          -9.285163      -24.375574        1.397996
 N          -9.574420      -25.299122        1.937350
 H          -7.291508      -23.225372       -0.727281
 H          -8.572818      -22.650181       -1.617959
 C          -7.557901      -22.994915       -1.746863
 C          -7.502793      -24.297825       -2.539703
 C          -6.651389      -21.930326       -2.307000
 C          -7.866267      -24.021343       -4.035582
 C          -7.039046      -21.609787       -3.793437
 C          -6.957535      -22.913729       -4.649567
 H          -8.208940      -25.026009       -2.017446
 H          -6.501303      -24.827635       -2.539763
 H          -6.776341      -20.962427       -1.767849
 H          -5.620545      -22.278593       -2.286301
 H          -8.917514      -23.788685       -4.191739
 H          -7.685230      -24.943029       -4.503009
 H          -6.338221      -20.898216       -4.250959
 H          -8.040443      -21.185101       -3.785875
 H          -7.431293      -22.726431       -5.650062
 H          -5.916357      -23.201971       -4.700002
