20
 generated by VMD
 C         -26.847851      -71.720482      -17.570358
 N         -26.831640      -72.795593      -17.129065
 H         -24.474421      -69.878555      -18.599571
 H         -26.678688      -70.775185      -18.106382
 C         -24.892982      -70.194908      -19.548086
 C         -24.236412      -71.183098      -20.378725
 C         -25.748116      -69.284149      -20.275232
 C         -25.084532      -71.947174      -21.385326
 C         -26.591005      -70.016357      -21.318956
 C         -25.994080      -71.061119      -22.164474
 H         -23.769232      -72.135719      -19.928745
 H         -23.408262      -70.639915      -20.988516
 H         -26.398005      -68.708130      -19.582558
 H         -25.087467      -68.578720      -20.788197
 H         -25.586365      -72.727943      -20.781487
 H         -24.519190      -72.466141      -22.164112
 H         -27.069447      -69.244987      -21.917452
 H         -27.401545      -70.369164      -20.723227
 H         -26.771687      -71.673103      -22.681618
 H         -25.466755      -70.458443      -22.879215
