20
 generated by VMD
 C         -72.508926     -198.939575      -65.614037
 N         -73.040733     -199.825302      -65.109329
 H         -71.024094     -195.857086      -67.535324
 H         -71.825020     -198.102890      -65.862900
 C         -72.016350     -195.735992      -67.934807
 C         -72.915474     -194.752472      -67.184311
 C         -72.487160     -196.552643      -69.065300
 C         -74.288124     -194.592834      -67.734978
 C         -73.922646     -196.990646      -68.925873
 C         -74.841644     -196.040161      -67.989899
 H         -72.468407     -193.709686      -67.330421
 H         -72.933823     -194.939606      -66.134155
 H         -72.541245     -195.889145      -69.963753
 H         -71.784927     -197.440903      -69.152443
 H         -74.369270     -193.875290      -68.606308
 H         -74.914642     -194.060669      -66.970192
 H         -73.859116     -198.047287      -68.585175
 H         -74.444328     -197.151489      -69.887268
 H         -75.890709     -195.898483      -68.487915
 H         -75.119476     -196.440765      -67.063896
