20
 generated by VMD
 C         -30.919140      -92.775040      -26.141300
 N         -30.388779      -92.556847      -25.163279
 H         -32.502377      -90.048088      -26.566505
 H         -31.492727      -93.039635      -27.012657
 C         -33.365990      -90.169289      -27.213673
 C         -33.909187      -91.624535      -27.139475
 C         -33.308956      -89.397011      -28.553646
 C         -35.306767      -91.628944      -27.852190
 C         -34.648243      -89.675987      -29.243326
 C         -34.943245      -91.145447      -29.282021
 H         -33.960766      -91.852821      -26.050518
 H         -33.297318      -92.367065      -27.563763
 H         -33.287495      -88.337318      -28.323563
 H         -32.502510      -89.717941      -29.150324
 H         -36.105972      -91.089668      -27.371046
 H         -35.600899      -92.727463      -27.969088
 H         -34.702393      -89.404106      -30.298378
 H         -35.495110      -89.120132      -28.847740
 H         -35.796658      -91.394203      -29.926546
 H         -34.122482      -91.825111      -29.645584
