20
 generated by VMD
 C         -65.567139     -177.642609      -56.697380
 N         -66.129074     -176.693970      -56.321144
 H         -64.929474     -175.384796      -59.417339
 H         -65.026520     -178.587173      -56.922119
 C         -64.616547     -174.413010      -59.434277
 C         -65.381477     -173.314377      -58.639130
 C         -63.449596     -174.026443      -60.428288
 C         -65.036705     -171.928238      -58.865173
 C         -63.103657     -172.467560      -60.448509
 C         -64.364006     -171.589493      -60.185497
 H         -65.597160     -173.706757      -57.589725
 H         -66.378006     -173.387115      -59.078163
 H         -62.401611     -174.585281      -60.266251
 H         -63.727474     -174.342728      -61.484989
 H         -64.354393     -171.561920      -58.005512
 H         -66.008110     -171.317627      -58.756302
 H         -62.445503     -172.093552      -61.242153
 H         -62.533043     -172.333160      -59.542049
 H         -64.025887     -170.576126      -60.183441
 H         -65.143929     -171.645355      -61.027893
