20
 generated by VMD
 C         -22.667778      -55.219608      -15.253613
 N         -23.100863      -55.191380      -16.340393
 H         -18.909157      -54.469395      -15.425990
 H         -21.996580      -55.237553      -14.243411
 C         -19.216085      -55.374523      -14.783874
 C         -19.037664      -55.163383      -13.313560
 C         -19.510866      -56.643204      -15.442762
 C         -19.541767      -56.394028      -12.590407
 C         -19.443970      -57.926792      -14.605918
 C         -19.080296      -57.741161      -13.165406
 H         -19.576540      -54.265656      -12.927433
 H         -17.975452      -54.926510      -13.143531
 H         -20.572531      -56.608482      -15.838754
 H         -19.049822      -56.647633      -16.461561
 H         -20.654369      -56.371067      -12.638038
 H         -19.291971      -56.305756      -11.548688
 H         -18.633219      -58.539307      -15.057950
 H         -20.379776      -58.427361      -14.699131
 H         -19.427805      -58.530224      -12.491133
 H         -18.022804      -57.716007      -13.042156
