20
 generated by VMD
 C         -65.328362     -177.341782      -56.332005
 N         -66.028275     -177.106018      -55.419605
 H         -64.453621     -175.012527      -59.369675
 H         -64.725449     -177.452271      -57.261295
 C         -64.326515     -173.965820      -59.509033
 C         -65.279877     -173.043777      -58.764965
 C         -63.603043     -173.502426      -60.696648
 C         -64.764923     -171.513046      -58.707897
 C         -63.114243     -172.109268      -60.448540
 C         -64.292046     -171.167343      -60.168125
 H         -65.306969     -173.543594      -57.755688
 H         -66.263504     -173.135910      -59.231701
 H         -62.872478     -174.254105      -60.970318
 H         -64.217369     -173.497757      -61.682499
 H         -63.930859     -171.289291      -58.094555
 H         -65.542946     -170.860382      -58.382072
 H         -62.760033     -171.749222      -61.384724
 H         -62.270542     -172.154694      -59.651791
 H         -63.965714     -170.106720      -60.119759
 H         -65.184647     -171.277344      -60.865887
