20
 generated by VMD
 C         -56.379200     -150.074997      -47.693008
 N         -57.542149     -150.320145      -47.624752
 H         -53.273251     -148.095749      -47.315529
 H         -55.331650     -149.764511      -47.807610
 C         -53.535332     -147.678909      -48.374260
 C         -53.117016     -148.550385      -49.615475
 C         -54.559612     -146.555206      -48.462593
 C         -54.128479     -148.660507      -50.781719
 C         -55.505531     -146.708267      -49.648590
 C         -54.980267     -147.374100      -50.976933
 H         -52.977402     -149.588760      -49.436073
 H         -52.093266     -148.265533      -49.964531
 H         -55.041382     -146.652039      -47.438004
 H         -54.008106     -145.633194      -48.612583
 H         -54.876648     -149.401093      -50.455441
 H         -53.701565     -149.142563      -51.691525
 H         -56.000278     -145.650970      -49.986881
 H         -56.319298     -147.322205      -49.357986
 H         -55.850319     -147.628632      -51.656597
 H         -54.415092     -146.646500      -51.586685
