20
 generated by VMD
 C         -50.107475     -144.923950      -44.532703
 N         -49.401680     -144.041229      -44.634972
 H         -52.458099     -142.344040      -45.795597
 H         -50.869560     -145.684555      -44.393711
 C         -53.110218     -142.343445      -46.660831
 C         -52.436268     -142.389694      -47.946831
 C         -54.487892     -141.759689      -46.625603
 C         -53.365936     -142.700272      -49.112331
 C         -55.358170     -142.103729      -47.882793
 C         -54.636868     -141.824036      -49.167061
 H         -51.816795     -143.283905      -47.960865
 H         -51.760082     -141.445282      -48.073963
 H         -55.023788     -142.106567      -45.699684
 H         -54.319538     -140.538651      -46.614479
 H         -53.539520     -143.886612      -49.119816
 H         -52.847916     -142.455109      -50.112865
 H         -56.290607     -141.576035      -47.744339
 H         -55.690475     -143.204346      -47.921989
 H         -55.189701     -142.119644      -50.132603
 H         -54.357864     -140.654083      -49.293320
