20
 generated by VMD
 C         -70.314667     -182.722702      -65.717422
 N         -71.003433     -183.637115      -65.602440
 H         -67.893059     -181.972626      -63.077885
 H         -69.602989     -181.949478      -65.818230
 C         -67.429657     -181.840836      -62.084541
 C         -67.568207     -182.966415      -61.170780
 C         -67.030212     -180.523056      -61.557976
 C         -66.629555     -183.016174      -59.896183
 C         -65.960022     -180.573822      -60.526592
 C         -66.367722     -181.580307      -59.395649
 H         -67.413124     -184.005341      -61.725140
 H         -68.651810     -183.043274      -60.857277
 H         -66.660851     -180.014008      -62.496494
 H         -67.945396     -180.002472      -61.327454
 H         -65.740234     -183.490936      -60.271702
 H         -67.094650     -183.446350      -59.117245
 H         -65.736092     -179.627029      -60.017906
 H         -65.019714     -180.866608      -61.023449
 H         -65.595459     -181.558655      -58.583256
 H         -67.274933     -181.324783      -58.929569
