20
 generated by VMD
 C         -50.632076     -129.023880      -42.585201
 N         -51.031311     -128.165466      -41.917919
 H         -48.219479     -128.172119      -40.819088
 H         -50.575363     -129.934616      -43.180477
 C         -47.252918     -127.638435      -40.757195
 C         -46.096352     -128.248352      -40.091393
 C         -47.047207     -126.232353      -41.177422
 C         -44.827480     -128.026794      -40.978111
 C         -45.751625     -125.991524      -41.923794
 C         -44.518559     -126.576561      -41.262756
 H         -46.331345     -129.245102      -39.850159
 H         -46.040241     -127.742340      -39.063908
 H         -47.823326     -125.775520      -41.735416
 H         -47.143044     -125.691811      -40.164753
 H         -44.911514     -128.624680      -41.870411
 H         -44.079304     -128.362518      -40.356842
 H         -45.719067     -124.870094      -41.974510
 H         -45.946934     -126.430824      -42.913231
 H         -43.756046     -126.399544      -42.022491
 H         -44.432743     -126.013016      -40.358784
