20
 generated by VMD
 C         -68.024971     -185.841599      -67.508118
 N         -68.658585     -186.824249      -67.608017
 H         -68.474228     -187.516556      -64.764725
 H         -67.484390     -184.969177      -67.277077
 C         -69.217453     -187.556961      -63.901302
 C         -68.744606     -187.130325      -62.526348
 C         -70.743607     -187.858231      -64.154236
 C         -69.725090     -187.289612      -61.380165
 C         -71.408249     -188.370102      -62.860275
 C         -71.182846     -187.476913      -61.739819
 H         -68.360664     -186.062820      -62.542862
 H         -67.941704     -187.913559      -62.437332
 H         -71.302467     -186.946274      -64.376144
 H         -70.905266     -188.589920      -64.996803
 H         -69.710823     -186.452774      -60.686714
 H         -69.352135     -188.155228      -60.744358
 H         -71.100227     -189.461258      -62.726669
 H         -72.506004     -188.393341      -63.061909
 H         -71.504478     -186.432602      -61.861034
 H         -71.818176     -187.729401      -60.925320
