20
 generated by VMD
 C         -38.811176     -115.707275      -35.407196
 N         -39.379654     -115.359375      -34.451607
 H         -41.449524     -115.467194      -37.140186
 H         -38.281151     -116.118011      -36.300762
 C         -42.435917     -115.666695      -37.322205
 C         -42.949528     -115.525650      -38.672924
 C         -43.386841     -115.562561      -36.196281
 C         -44.261383     -116.290688      -38.837128
 C         -44.751202     -116.224167      -36.456848
 C         -45.231319     -115.830414      -37.803581
 H         -42.182026     -115.877945      -39.402435
 H         -43.087917     -114.406677      -38.755291
 H         -43.005737     -115.809349      -35.233299
 H         -43.777294     -114.564934      -36.113781
 H         -44.230175     -117.348267      -38.768131
 H         -44.682266     -115.989456      -39.823460
 H         -45.524517     -115.956902      -35.772388
 H         -44.663864     -117.304802      -36.427784
 H         -46.343216     -116.286140      -37.824837
 H         -45.423725     -114.696335      -37.748859
