20
 generated by VMD
 C         -49.979340     -143.074600      -44.833096
 N         -49.096241     -143.357529      -45.469173
 H         -51.932995     -140.851532      -45.444180
 H         -50.859638     -142.951050      -44.286850
 C         -52.644112     -141.143967      -46.162769
 C         -52.093887     -141.217804      -47.689404
 C         -54.084339     -140.873840      -46.058308
 C         -53.015068     -142.157028      -48.480297
 C         -54.931042     -141.758682      -46.985241
 C         -54.478577     -141.786285      -48.401741
 H         -51.039749     -141.546234      -47.873375
 H         -52.174576     -140.234085      -48.311562
 H         -54.374596     -141.134949      -45.023769
 H         -54.233219     -139.722183      -46.217113
 H         -52.883591     -143.245422      -48.053616
 H         -52.553928     -142.185165      -49.513069
 H         -55.965946     -141.364990      -47.038788
 H         -55.041252     -142.824203      -46.649670
 H         -55.130875     -142.493210      -49.033215
 H         -54.820957     -140.805939      -48.862488
