20
 generated by VMD
 C         -58.365162     -159.086975      -57.817070
 N         -59.330711     -158.557083      -57.640541
 H         -59.005165     -160.285751      -54.747391
 H         -57.436817     -159.539261      -57.999752
 C         -59.521526     -160.537872      -53.818806
 C         -58.519012     -160.815338      -52.676571
 C         -60.731815     -161.475723      -53.998062
 C         -59.252377     -160.964066      -51.283813
 C         -61.354431     -161.838776      -52.601685
 C         -60.316261     -162.036621      -51.449959
 H         -57.774120     -160.039291      -52.470970
 H         -58.045517     -161.815765      -53.035233
 H         -61.498886     -161.182556      -54.647224
 H         -60.236351     -162.293777      -54.556877
 H         -59.511353     -160.020966      -50.885284
 H         -58.508835     -161.335678      -50.421722
 H         -62.058151     -162.642456      -52.662441
 H         -61.973602     -161.015289      -52.311600
 H         -60.867413     -162.149216      -50.549725
 H         -59.815334     -163.024994      -51.564377
