20
 generated by VMD
 C         -68.997276     -187.931839      -67.759232
 N         -67.988297     -187.381699      -67.735359
 H         -68.105484     -187.339539      -63.982098
 H         -69.898392     -188.438980      -67.792099
 C         -69.039742     -187.343948      -63.397919
 C         -69.168823     -188.121292      -62.102097
 C         -70.383293     -186.728989      -63.866550
 C         -70.398819     -189.091675      -62.186409
 C         -71.590454     -187.722229      -63.743454
 C         -71.688072     -188.367859      -62.450584
 H         -69.350037     -187.377884      -61.244488
 H         -68.126038     -188.500366      -61.959541
 H         -70.722328     -185.764160      -63.426395
 H         -70.279144     -186.502014      -64.869583
 H         -70.543449     -189.695328      -61.286594
 H         -70.337914     -189.807709      -63.039867
 H         -71.634697     -188.399841      -64.647301
 H         -72.476990     -187.082031      -63.965347
 H         -71.770859     -187.714157      -61.585682
 H         -72.669121     -188.917557      -62.289577
