20
 generated by VMD
 C         -11.803678      -39.547050       -6.982195
 N         -10.856467      -39.648094       -6.397030
 H         -13.153611      -40.839539       -9.001050
 H         -14.414091      -39.808487       -9.083603
 C         -14.187331      -40.870819       -9.177135
 C         -14.811748      -41.734608       -8.025766
 C         -14.575217      -41.414913      -10.581182
 C         -16.331604      -41.889454       -8.114423
 C         -16.101740      -41.465801      -10.716720
 C         -16.765953      -42.300159       -9.546850
 H         -14.551439      -41.247555       -7.119383
 H         -14.299299      -42.676083       -7.969596
 H         -14.125896      -40.749622      -11.326749
 H         -14.171984      -42.447548      -10.701366
 H         -16.851248      -40.980022       -7.775372
 H         -16.631765      -42.645161       -7.433980
 H         -16.507803      -41.894588      -11.648991
 H         -16.517197      -40.490746      -10.609538
 H         -17.858479      -42.178234       -9.626202
 H         -16.472389      -43.327839       -9.778472
