20
 generated by VMD
 C         -20.075092      -57.318768      -16.806810
 N         -19.179924      -57.584705      -17.500538
 H         -22.498262      -59.576218      -17.267990
 H         -20.834406      -57.222179      -16.169716
 C         -22.495180      -60.407784      -16.676960
 C         -23.728065      -61.183601      -16.358114
 C         -21.321718      -60.799305      -15.863924
 C         -23.803474      -62.254173      -15.307240
 C         -21.339727      -62.288445      -15.554990
 C         -22.458328      -62.461536      -14.571008
 H         -24.205257      -61.526886      -17.265974
 H         -24.474657      -60.457855      -16.174353
 H         -20.394747      -60.534748      -16.352715
 H         -21.347086      -60.352493      -14.857027
 H         -24.103886      -63.185593      -15.807937
 H         -24.511454      -61.924747      -14.554392
 H         -20.392399      -62.784191      -15.286641
 H         -21.585770      -62.905018      -16.477240
 H         -22.471777      -63.466820      -14.103325
 H         -22.521704      -61.748966      -13.760919
