20
 generated by VMD
 C          -2.325870       -8.660038       -0.824271
 N          -1.625675       -8.274001       -0.006798
 H          -2.945961       -9.591095        2.915430
 H          -1.818040      -10.925668        3.333032
 C          -2.865327      -10.604561        3.176769
 C          -3.509600      -11.470519        2.125974
 C          -3.664089      -10.869550        4.525727
 C          -3.335641      -13.002620        2.502625
 C          -3.584151      -12.285245        5.042727
 C          -3.959683      -13.281059        3.907310
 H          -3.007809      -11.228715        1.199153
 H          -4.579945      -11.264833        2.033146
 H          -3.219168      -10.295004        5.384306
 H          -4.670942      -10.465774        4.517618
 H          -2.250398      -13.229712        2.430868
 H          -3.823665      -13.573087        1.714875
 H          -4.209207      -12.500528        5.950512
 H          -2.553717      -12.582976        5.350517
 H          -3.762386      -14.330277        4.210225
 H          -5.058339      -13.239686        3.869431
