20
 generated by VMD
 C         -41.081272     -101.473732      -32.642414
 N         -41.980392     -101.497986      -33.396690
 H         -38.687485     -102.849182      -32.404343
 H         -40.218773     -101.186890      -32.026161
 C         -37.673805     -102.830826      -32.017471
 C         -36.631721     -102.682701      -32.930508
 C         -37.452415     -103.104851      -30.558958
 C         -35.222015     -102.274063      -32.370998
 C         -36.250168     -102.297821      -30.082458
 C         -35.031731     -102.684258      -30.878407
 H         -36.803509     -101.920380      -33.725216
 H         -36.419018     -103.624771      -33.448097
 H         -38.235260     -102.755157      -29.914839
 H         -37.329823     -104.268555      -30.391489
 H         -35.203030     -101.246117      -32.402565
 H         -34.387432     -102.560165      -33.000122
 H         -36.057262     -102.555908      -28.978750
 H         -36.310356     -101.229965      -30.139420
 H         -34.151348     -102.152031      -30.385481
 H         -34.742485     -103.705399      -30.730154
