20
 generated by VMD
 C         -70.346748     -198.019211      -64.457634
 N         -69.869888     -198.002258      -65.506531
 H         -73.076706     -196.662048      -66.316856
 H         -70.653938     -197.884216      -63.450821
 C         -73.504189     -195.771576      -66.839485
 C         -73.128326     -194.414612      -66.384232
 C         -74.468475     -196.124161      -67.892456
 C         -73.008751     -193.453293      -67.562515
 C         -74.779015     -194.858307      -68.692177
 C         -73.516502     -193.972672      -68.888084
 H         -72.291534     -194.486023      -65.705460
 H         -73.893021     -194.120758      -65.645172
 H         -74.175385     -196.998993      -68.447701
 H         -75.320068     -196.447067      -67.271561
 H         -71.969315     -193.168472      -67.719452
 H         -73.501678     -192.485550      -67.333435
 H         -75.598305     -194.286728      -68.192802
 H         -75.050865     -195.011566      -69.711601
 H         -72.781570     -194.344711      -69.537033
 H         -73.890526     -193.113022      -69.492264
