20
 generated by VMD
 C         -47.627132     -138.083710      -45.781624
 N         -47.212345     -137.927109      -46.911129
 H         -50.440556     -137.704163      -44.643761
 H         -48.023144     -138.552216      -44.898193
 C         -51.399780     -138.106384      -44.915871
 C         -51.401947     -138.837692      -46.212955
 C         -52.563797     -137.865189      -44.114265
 C         -52.581676     -139.799866      -46.389046
 C         -53.656532     -138.882019      -44.232594
 C         -53.884853     -139.301224      -45.741009
 H         -50.524677     -139.488419      -46.372711
 H         -51.519825     -138.033508      -47.005081
 H         -52.198334     -137.741943      -43.094646
 H         -53.049740     -136.995956      -44.590504
 H         -52.222076     -140.764175      -46.065308
 H         -52.829796     -139.736710      -47.441235
 H         -54.618507     -138.511765      -43.783932
 H         -53.137951     -139.794327      -43.720089
 H         -54.592403     -140.018753      -45.777283
 H         -54.272141     -138.497467      -46.331982
