20
 generated by VMD
 C         -19.132496      -61.441833      -16.178711
 N         -19.921921      -60.627262      -16.466887
 H         -22.530079      -62.059326      -18.041544
 H         -18.326269      -62.161396      -16.128942
 C         -22.942617      -63.097210      -17.851252
 C         -24.114666      -63.587616      -18.737139
 C         -22.942163      -63.293262      -16.419847
 C         -24.836256      -64.842484      -18.276333
 C         -23.673460      -64.523750      -15.993852
 C         -25.073906      -64.793861      -16.813335
 H         -23.616440      -63.792175      -19.697271
 H         -24.871344      -62.732563      -18.822947
 H         -21.895565      -63.237701      -16.045866
 H         -23.499149      -62.481102      -15.847260
 H         -24.025343      -65.605385      -18.485821
 H         -25.728090      -65.090248      -18.972561
 H         -23.870462      -64.585220      -14.943228
 H         -23.041861      -65.319366      -16.347975
 H         -25.344959      -65.763725      -16.487652
 H         -25.713270      -63.972729      -16.439827
