20
 generated by VMD
 C         -59.780411     -152.071716      -49.823788
 N         -58.738350     -152.460892      -50.157593
 H         -56.546291     -151.081451      -48.448849
 H         -60.715801     -151.777161      -49.359783
 C         -55.750477     -150.620178      -49.122360
 C         -54.809387     -151.629456      -49.658157
 C         -55.317463     -149.180862      -49.190414
 C         -54.291996     -151.183212      -51.081062
 C         -54.839275     -148.707687      -50.604443
 C         -53.841724     -149.715988      -51.094437
 H         -55.400658     -152.495850      -49.890701
 H         -54.012268     -151.807571      -48.849194
 H         -56.076523     -148.486237      -48.784969
 H         -54.451599     -149.003220      -48.555584
 H         -55.018547     -151.519180      -51.859966
 H         -53.403099     -151.774384      -51.140606
 H         -54.370872     -147.753357      -50.597633
 H         -55.597172     -148.506271      -51.441036
 H         -53.381771     -149.413757      -52.102612
 H         -52.970856     -149.635635      -50.391350
