20
 generated by VMD
 C         -75.042816     -201.399734      -66.528496
 N         -75.352303     -201.945770      -65.551445
 H         -76.314926     -199.240250      -69.381393
 H         -74.823006     -200.867004      -67.503395
 C         -75.263802     -198.991074      -69.176094
 C         -74.925735     -197.989182      -68.103752
 C         -74.222870     -199.662460      -70.040794
 C         -73.439445     -197.769394      -68.058159
 C         -73.090591     -198.667053      -70.441902
 C         -72.756050     -197.626541      -69.369438
 H         -75.275215     -198.238052      -67.157463
 H         -75.299149     -197.060059      -68.515015
 H         -73.855553     -200.598419      -69.592537
 H         -74.764359     -200.166092      -70.942078
 H         -72.890457     -198.510330      -67.470345
 H         -73.169662     -196.889954      -67.432373
 H         -73.479301     -198.092102      -71.272842
 H         -72.193375     -199.114853      -70.761604
 H         -71.733658     -197.675919      -69.366341
 H         -73.022575     -196.537521      -69.738228
