20
 generated by VMD
 C         -29.828716      -79.879593      -26.472755
 N         -30.124090      -78.955147      -25.867193
 H         -28.636023      -82.855759      -25.684801
 H         -29.403286      -80.798798      -26.841759
 C         -29.238779      -82.901123      -24.788694
 C         -28.813496      -82.001259      -23.730490
 C         -29.915159      -84.113693      -24.362904
 C         -29.837870      -81.610474      -22.668333
 C         -31.094870      -83.843925      -23.470745
 C         -30.696140      -82.913132      -22.222389
 H         -28.613682      -80.991730      -24.263449
 H         -27.937929      -82.321022      -23.156794
 H         -30.195236      -84.616516      -25.252237
 H         -29.224995      -84.707024      -23.768929
 H         -30.495741      -80.787338      -23.005796
 H         -29.223734      -81.034630      -21.825911
 H         -31.550184      -84.777672      -23.162748
 H         -31.871847      -83.287483      -23.935047
 H         -31.678690      -82.681915      -21.710911
 H         -29.981554      -83.464699      -21.673615
