20
 generated by VMD
 C         -50.511230     -130.920410      -46.396793
 N         -50.265179     -131.142441      -47.569614
 H         -48.614414     -131.882111      -44.284180
 H         -50.656525     -130.900940      -45.284893
 C         -48.657074     -132.304092      -43.326027
 C         -49.261066     -133.597870      -43.143272
 C         -48.527416     -131.455780      -42.080360
 C         -48.517765     -134.441956      -42.013268
 C         -47.882298     -132.247894      -40.943737
 C         -48.514450     -133.640640      -40.653294
 H         -49.260517     -134.111740      -44.044289
 H         -50.339294     -133.452560      -42.784721
 H         -47.921017     -130.717010      -42.460449
 H         -49.475227     -131.101166      -41.820225
 H         -47.462337     -134.736359      -42.092991
 H         -49.076271     -135.371124      -41.805023
 H         -47.889366     -131.681702      -40.014229
 H         -46.852467     -132.247894      -41.152687
 H         -47.818459     -133.975876      -39.855888
 H         -49.500423     -133.572342      -40.299297
