20
 generated by VMD
 C         -19.978151      -51.813435      -10.083426
 N         -20.869083      -51.227657       -9.715220
 H         -18.005806      -49.184921      -10.428957
 H         -19.154213      -52.232403      -10.807908
 C         -17.324825      -49.117329      -11.286024
 C         -16.400202      -50.196110      -11.653469
 C         -17.405409      -47.916855      -12.152435
 C         -16.712139      -50.586884      -13.104698
 C         -17.201212      -48.261242      -13.642647
 C         -16.357870      -49.485531      -14.097692
 H         -16.557123      -51.091290      -11.068496
 H         -15.381811      -49.820957      -11.572313
 H         -18.268669      -47.262047      -11.921019
 H         -16.563772      -47.278439      -11.928635
 H         -17.754892      -50.842854      -13.237352
 H         -16.062954      -51.448811      -13.319977
 H         -16.895773      -47.393219      -14.143506
 H         -18.235319      -48.622162      -13.941237
 H         -16.697706      -49.714943      -15.120872
 H         -15.301888      -49.330944      -14.239316
