20
 generated by VMD
 C         -21.607615      -65.803925      -16.887888
 N         -20.991678      -66.460587      -16.185766
 H         -24.084846      -63.907379      -18.085789
 H         -22.297003      -65.428230      -17.691401
 C         -24.401554      -64.936325      -18.444902
 C         -24.326929      -65.367050      -19.844919
 C         -25.421427      -65.712364      -17.485073
 C         -24.499998      -66.901306      -20.095459
 C         -25.269329      -67.215965      -17.641150
 C         -25.189672      -67.851517      -19.035210
 H         -23.344753      -65.079681      -20.222763
 H         -25.066530      -64.853386      -20.618170
 H         -25.050127      -65.462280      -16.464781
 H         -26.427216      -65.517456      -17.822376
 H         -23.466806      -67.184258      -20.189474
 H         -24.886015      -67.136795      -21.060638
 H         -26.155441      -67.720161      -17.202620
 H         -24.400211      -67.565346      -17.101871
 H         -24.824753      -68.905792      -18.990278
 H         -26.249891      -68.014755      -19.401478
