20
 generated by VMD
 C         -23.567537      -68.773994      -16.544804
 N         -23.266600      -69.565536      -15.754828
 H         -23.807049      -66.089401      -19.207979
 H         -23.977301      -68.147018      -17.422388
 C         -24.449604      -66.904549      -19.440294
 C         -23.960752      -67.753273      -20.496311
 C         -25.917435      -67.034180      -19.074097
 C         -24.525465      -69.165550      -20.701582
 C         -26.331036      -68.500587      -19.204842
 C         -26.025150      -69.267471      -20.645199
 H         -22.797930      -67.839211      -20.496977
 H         -24.179300      -67.246292      -21.413568
 H         -26.204042      -66.605743      -18.132294
 H         -26.440426      -66.259743      -19.637150
 H         -24.067165      -69.817093      -19.991119
 H         -24.290716      -69.565331      -21.618809
 H         -27.324312      -68.661163      -18.798855
 H         -25.859426      -69.090172      -18.425543
 H         -26.423779      -70.281242      -20.492792
 H         -26.637352      -68.676582      -21.367508
