20
 generated by VMD
 C         -68.981598     -194.005325      -64.507919
 N         -68.427383     -194.070053      -65.493797
 H         -71.121643     -194.017303      -67.631950
 H         -69.426956     -194.032089      -63.517906
 C         -71.927902     -193.332809      -67.288979
 C         -71.570427     -192.107651      -66.541695
 C         -73.341141     -193.944427      -67.278908
 C         -72.623932     -191.432907      -65.694473
 C         -74.310150     -193.023422      -66.645950
 C         -73.765518     -192.414246      -65.326645
 H         -71.143723     -191.339050      -67.079010
 H         -70.733818     -192.325836      -65.755219
 H         -73.526215     -194.007187      -68.292725
 H         -73.412804     -194.971710      -66.987129
 H         -73.100616     -190.624130      -66.375565
 H         -72.289627     -190.808929      -64.849564
 H         -75.203468     -193.574310      -66.408546
 H         -74.677330     -192.220184      -67.287354
 H         -74.465149     -191.951401      -64.748474
 H         -73.276619     -193.205780      -64.598732
