20
 generated by VMD
 C         -14.083491      -28.104769       -3.051269
 N         -14.052468      -27.167892       -3.673632
 H         -10.429052      -28.228283       -3.032092
 H          -9.809999      -27.136194       -4.206110
 C          -9.506848      -27.903421       -3.442837
 C          -8.862128      -29.043112       -4.245318
 C          -8.465530      -27.216467       -2.573921
 C          -7.650640      -28.645267       -5.042033
 C          -7.125035      -26.881479       -3.256436
 C          -6.577060      -27.939983       -4.251594
 H          -9.619043      -29.590103       -4.812103
 H          -8.580208      -29.859011       -3.462063
 H          -8.910556      -26.337242       -2.094149
 H          -8.279161      -27.922020       -1.764713
 H          -7.999192      -27.962358       -5.837191
 H          -7.155972      -29.453953       -5.629075
 H          -6.425742      -26.466337       -2.542826
 H          -7.376854      -25.982023       -3.912861
 H          -5.820601      -27.453526       -4.910207
 H          -6.135728      -28.778076       -3.722054
