20
 generated by VMD
 C         -48.495602     -135.842255      -46.147442
 N         -47.597755     -136.174454      -45.572224
 H         -51.806309     -134.951355      -45.916214
 H         -49.347393     -135.524445      -46.736294
 C         -51.708027     -135.962631      -45.412540
 C         -52.420017     -137.222946      -45.828701
 C         -51.125443     -135.817429      -43.973930
 C         -51.765659     -138.505569      -45.227047
 C         -50.700962     -137.073135      -43.303082
 C         -51.397064     -138.374557      -43.746170
 H         -52.339073     -137.360107      -46.913548
 H         -53.491127     -137.077087      -45.575954
 H         -50.347073     -135.098862      -43.927483
 H         -51.987087     -135.481201      -43.389717
 H         -50.861286     -138.935349      -45.797199
 H         -52.551109     -139.234650      -45.338745
 H         -50.700394     -137.002853      -42.169746
 H         -49.622494     -137.093918      -43.590843
 H         -50.977932     -139.196671      -43.289139
 H         -52.304482     -138.515335      -43.105282
