20
 generated by VMD
 C         -22.398563      -67.835281      -16.318861
 N         -21.376427      -67.766464      -15.806183
 H         -24.081409      -65.604507      -18.168657
 H         -23.546917      -67.943321      -16.559868
 C         -24.515053      -66.374016      -18.789452
 C         -24.011566      -66.967308      -20.018698
 C         -26.014784      -66.550941      -18.543447
 C         -24.484217      -68.353889      -20.290535
 C         -26.547712      -67.824997      -19.109158
 C         -25.986263      -68.323540      -20.412796
 H         -22.946054      -66.997093      -19.870634
 H         -24.280128      -66.351334      -20.868452
 H         -26.180237      -66.500572      -17.461029
 H         -26.613581      -65.598259      -18.819487
 H         -24.007521      -68.959099      -19.490044
 H         -23.970507      -68.736847      -21.259130
 H         -27.615623      -67.912849      -19.273428
 H         -26.327681      -68.632751      -18.346313
 H         -26.397076      -69.335922      -20.415924
 H         -26.307173      -67.716835      -21.302376
