20
 generated by VMD
 C         -78.775589     -204.199051      -70.423050
 N         -79.857704     -204.575409      -70.472801
 H         -76.716034     -203.452271      -68.635124
 H         -77.735374     -203.862640      -70.248001
 C         -75.780632     -203.209763      -69.230064
 C         -75.721893     -201.767212      -69.798470
 C         -74.447990     -203.882309      -68.920784
 C         -74.669479     -201.616379      -70.794090
 C         -73.244118     -202.966293      -69.039261
 C         -73.234924     -202.137497      -70.291359
 H         -75.608665     -201.037491      -68.933678
 H         -76.691223     -201.712891      -70.258743
 H         -74.511292     -204.327759      -67.876480
 H         -74.426956     -204.871964      -69.544495
 H         -74.659233     -200.508789      -71.102135
 H         -74.975494     -202.172516      -71.712471
 H         -72.317413     -203.387466      -68.880066
 H         -73.255524     -202.194916      -68.230499
 H         -72.401184     -201.402679      -70.191658
 H         -72.776962     -202.713455      -71.081802
