20
 generated by VMD
 C         -59.391949     -168.446304      -55.650833
 N         -58.774223     -168.854630      -54.697739
 H         -62.440365     -169.552597      -55.873066
 H         -59.947224     -168.262650      -56.576450
 C         -62.669430     -168.607376      -56.348541
 C         -62.792572     -168.509918      -57.912670
 C         -62.966400     -167.391632      -55.547493
 C         -63.882137     -167.589737      -58.375080
 C         -64.122879     -166.534424      -56.087219
 C         -63.940929     -166.282272      -57.588715
 H         -62.828239     -169.496155      -58.271187
 H         -61.797390     -168.044098      -58.212860
 H         -63.117191     -167.651337      -54.540329
 H         -62.045036     -166.782532      -55.604645
 H         -64.768951     -168.227402      -58.332508
 H         -63.775101     -167.403549      -59.459976
 H         -64.279282     -165.488190      -55.601479
 H         -65.125191     -167.061432      -55.907024
 H         -64.642105     -165.575943      -58.063946
 H         -63.046116     -165.754562      -57.662178
