20
 generated by VMD
 C         -50.006332     -142.934769      -45.550064
 N         -48.921551     -143.149170      -45.269608
 H         -52.273849     -139.737045      -45.459915
 H         -51.021912     -142.685287      -45.610043
 C         -52.607582     -140.405807      -46.237106
 C         -52.136959     -140.762314      -47.622589
 C         -54.077938     -140.508408      -45.938740
 C         -52.841934     -142.028854      -48.125969
 C         -54.708405     -141.705170      -46.637821
 C         -54.298286     -141.940308      -48.035427
 H         -50.996483     -140.884613      -47.451614
 H         -52.249050     -139.961304      -48.383633
 H         -54.366215     -140.709518      -44.879742
 H         -54.498604     -139.502609      -46.327381
 H         -52.431854     -142.970642      -47.566189
 H         -52.605656     -142.170105      -49.231392
 H         -55.803730     -141.741745      -46.677788
 H         -54.385452     -142.473373      -45.957954
 H         -54.808022     -142.867767      -48.475342
 H         -54.704975     -141.110489      -48.753506
