20
 generated by VMD
 C         -47.774593     -139.605011      -45.991699
 N         -46.689667     -139.100403      -46.146133
 H         -50.913845     -138.668365      -45.020443
 H         -48.780621     -139.908752      -45.742008
 C         -51.878483     -139.109787      -45.278854
 C         -51.923836     -139.331451      -46.687813
 C         -53.114643     -138.782974      -44.551514
 C         -53.060894     -140.345169      -46.976952
 C         -54.180046     -139.833725      -44.899704
 C         -54.394783     -139.977936      -46.463165
 H         -50.959751     -139.710022      -47.086796
 H         -51.997662     -138.397552      -47.235039
 H         -52.968361     -138.948883      -43.515606
 H         -53.421616     -137.746170      -44.683907
 H         -52.774632     -141.358200      -46.540691
 H         -53.005051     -140.505005      -48.046211
 H         -55.118130     -139.471207      -44.433167
 H         -54.033165     -140.730286      -44.347507
 H         -55.016815     -140.865967      -46.698997
 H         -54.677162     -138.938538      -46.957451
