20
 generated by VMD
 C         -31.226381      -75.707817      -21.468344
 N         -32.339996      -75.317642      -21.439499
 H         -27.813536      -75.471138      -20.015657
 H         -30.318426      -76.002235      -22.077860
 C         -26.969276      -75.287849      -20.701817
 C         -26.467426      -76.461815      -21.481224
 C         -26.010714      -74.135857      -20.423992
 C         -25.940952      -76.011169      -22.816813
 C         -25.409124      -73.720825      -21.745068
 C         -24.784826      -74.886055      -22.479008
 H         -27.299141      -77.300346      -21.636618
 H         -25.822508      -77.042427      -20.791103
 H         -26.471745      -73.243965      -20.008720
 H         -25.177237      -74.616211      -19.816769
 H         -26.694233      -75.594696      -23.497982
 H         -25.437796      -76.815796      -23.383020
 H         -24.719479      -72.900398      -21.636778
 H         -26.106277      -73.185196      -22.394844
 H         -24.527630      -74.571274      -23.473114
 H         -23.915319      -75.274734      -21.924568
