20
 generated by VMD
 C          -4.179429      -20.781219        2.975840
 N          -4.714962      -19.809750        2.826777
 H          -5.047335      -18.946833       -0.357159
 H          -5.765627      -20.570200       -0.440033
 C          -5.859601      -19.554111       -0.814563
 C          -5.674072      -19.693579       -2.312357
 C          -7.278110      -19.010298       -0.472359
 C          -6.819302      -20.432295       -3.033676
 C          -8.403238      -19.736475       -1.262834
 C          -8.164761      -19.786448       -2.793198
 H          -4.797057      -20.330770       -2.547458
 H          -5.617054      -18.706602       -2.818852
 H          -7.391158      -19.212317        0.517215
 H          -7.263461      -17.966208       -0.637205
 H          -6.907817      -21.520378       -2.693028
 H          -6.526872      -20.411549       -4.096712
 H          -9.401532      -19.305058       -1.058675
 H          -8.473836      -20.814655       -0.917311
 H          -8.957543      -20.332422       -3.371173
 H          -8.102619      -18.717396       -2.995274
