20
 generated by VMD
 C          -1.178785      -13.180106        0.959833
 N          -0.495373      -13.009661        0.129359
 H          -4.411677      -13.134365        1.803325
 H          -5.852229      -13.294698        0.678215
 C          -5.175695      -13.804181        1.360768
 C          -5.930988      -14.284329        2.618961
 C          -4.364483      -15.019417        0.766100
 C          -6.921919      -15.394053        2.208843
 C          -5.236845      -16.167238        0.420559
 C          -6.117784      -16.529762        1.587420
 H          -6.408011      -13.453518        3.110721
 H          -5.216574      -14.755525        3.303764
 H          -3.902833      -14.680484       -0.117372
 H          -3.610525      -15.307410        1.441660
 H          -7.605373      -14.925733        1.448441
 H          -7.512604      -15.705925        3.087682
 H          -4.615645      -17.031109        0.120966
 H          -5.883511      -15.923374       -0.471364
 H          -6.743730      -17.347567        1.233773
 H          -5.382965      -16.900698        2.294947
