20
 generated by VMD
 C         -41.622047     -101.402649      -32.687458
 N         -41.578171     -101.599525      -33.830994
 H         -38.758598     -103.060181      -32.565964
 H         -41.658192     -101.684151      -31.580225
 C         -37.798180     -102.983223      -32.048481
 C         -36.589657     -103.076599      -32.951324
 C         -37.568695     -103.490967      -30.631147
 C         -35.338654     -102.462646      -32.399204
 C         -36.373085     -102.738251      -30.042645
 C         -35.108974     -102.831100      -31.020899
 H         -36.922447     -102.632454      -33.904934
 H         -36.425247     -104.167923      -33.170845
 H         -38.343666     -103.358643      -29.856417
 H         -37.319519     -104.663422      -30.663286
 H         -35.405540     -101.423180      -32.404137
 H         -34.444386     -102.669495      -32.977158
 H         -36.373306     -103.304665      -29.059885
 H         -36.582005     -101.711472      -29.843390
 H         -34.275768     -102.158180      -30.693350
 H         -34.665874     -103.761627      -30.833834
