20
 generated by VMD
 C         -11.086988      -34.780888       -9.153373
 N         -10.638883      -35.314819       -8.309724
 H         -12.171097      -37.158787       -7.393261
 H         -13.351671      -37.078484       -6.056571
 C         -13.066314      -37.628777       -7.003965
 C         -12.627185      -39.053951       -6.711198
 C         -14.325721      -37.577660       -7.956782
 C         -13.775290      -39.948868       -6.228313
 C         -15.428985      -38.639133       -7.606569
 C         -14.867384      -40.030396       -7.349999
 H         -11.729163      -38.976124       -6.043329
 H         -12.198730      -39.548641       -7.648874
 H         -14.706795      -36.589272       -8.064470
 H         -13.956140      -37.837498       -8.997378
 H         -14.240321      -39.508060       -5.329384
 H         -13.447671      -40.963394       -5.891554
 H         -16.181276      -38.669643       -8.337533
 H         -15.874763      -38.263493       -6.667335
 H         -15.653214      -40.675579       -6.991992
 H         -14.484510      -40.445698       -8.279827
