20
 generated by VMD
 C         -29.900354      -79.307365      -25.987019
 N         -30.862907      -78.641190      -26.001062
 H         -29.294724      -82.754646      -25.662275
 H         -28.991470      -79.994644      -26.148317
 C         -29.076674      -82.896461      -24.666864
 C         -28.312836      -81.982506      -23.737522
 C         -29.856449      -84.042183      -24.038607
 C         -29.387157      -81.397858      -22.787020
 C         -30.932461      -83.324692      -23.245186
 C         -30.332788      -82.382599      -22.273005
 H         -27.807667      -81.201111      -24.315166
 H         -27.557255      -82.556160      -23.077312
 H         -30.178158      -84.723404      -24.747080
 H         -29.238335      -84.566376      -23.303562
 H         -29.948872      -80.511818      -23.254869
 H         -29.020493      -80.947411      -21.806196
 H         -31.602810      -83.974831      -22.808413
 H         -31.560423      -82.761986      -23.964861
 H         -31.180443      -81.902428      -21.878609
 H         -29.840267      -82.822792      -21.451773
