20
 generated by VMD
 C         -22.869812      -68.479050      -16.623047
 N         -22.975998      -69.216751      -15.712169
 H         -24.218945      -65.824615      -19.132355
 H         -22.669847      -67.837830      -17.390091
 C         -24.580282      -66.835373      -19.297604
 C         -23.844032      -67.590942      -20.441824
 C         -26.077715      -67.048813      -18.942829
 C         -24.447100      -69.014145      -20.445084
 C         -26.644154      -68.381012      -19.230625
 C         -25.971245      -68.862541      -20.535027
 H         -22.839626      -67.561325      -20.433958
 H         -24.050440      -67.096207      -21.418316
 H         -26.082987      -66.568802      -17.969206
 H         -26.685116      -66.310738      -19.513039
 H         -24.310457      -69.573494      -19.478970
 H         -24.070747      -69.644348      -21.310240
 H         -27.735826      -68.349022      -19.434299
 H         -26.544495      -69.041107      -18.359760
 H         -26.545622      -69.735085      -20.753138
 H         -26.219923      -68.161057      -21.299316
