20
 generated by VMD
 C         -38.581905     -113.348312      -36.280289
 N         -37.451649     -113.365288      -36.117832
 H         -41.301018     -114.764328      -35.086311
 H         -39.657753     -113.219032      -36.572414
 C         -42.175545     -114.499313      -35.618149
 C         -42.122456     -114.676086      -37.054096
 C         -43.541992     -114.177147      -34.964584
 C         -43.465118     -114.996323      -37.903214
 C         -44.759651     -114.825172      -35.624462
 C         -44.691170     -114.538528      -37.192493
 H         -41.520252     -115.596115      -37.290928
 H         -41.701603     -113.800255      -37.543190
 H         -43.448689     -114.471893      -33.937981
 H         -43.659245     -113.120850      -35.098553
 H         -43.580418     -116.096855      -37.960506
 H         -43.373447     -114.689713      -38.991825
 H         -45.650352     -114.337547      -35.097015
 H         -44.687328     -115.957870      -35.591122
 H         -45.605343     -114.852631      -37.814747
 H         -44.672039     -113.387321      -37.173820
