20
 generated by VMD
 C         -12.312520      -43.003277       -7.083651
 N         -12.581131      -42.107426       -6.479104
 H         -14.819522      -43.787407       -8.260227
 H         -14.677917      -42.381042       -9.317225
 C         -15.237796      -43.355427       -9.230124
 C         -16.693172      -43.012470       -8.991862
 C         -14.881181      -44.223263      -10.443093
 C         -17.269672      -42.490295      -10.276440
 C         -15.545807      -43.636295      -11.691472
 C         -17.019680      -43.502697      -11.407211
 H         -16.776541      -42.193939       -8.212783
 H         -17.231062      -43.876003       -8.580959
 H         -13.764510      -44.480064      -10.504826
 H         -15.310387      -45.260616      -10.325078
 H         -16.918739      -41.492424      -10.552401
 H         -18.356825      -42.333057      -10.163401
 H         -15.388293      -44.430725      -12.484186
 H         -15.183508      -42.695282      -12.019146
 H         -17.701387      -43.281311      -12.247427
 H         -17.307749      -44.453964      -11.007585
