20
 generated by VMD
 C         -13.372734      -30.907495       -8.287959
 N         -13.037807      -30.038342       -8.935995
 H         -11.287221      -32.061314       -6.259225
 H         -11.641240      -32.058941       -4.524527
 C         -11.289958      -32.692844       -5.395376
 C          -9.830459      -33.087017       -5.199612
 C         -12.096255      -33.926182       -5.639841
 C          -9.672285      -33.949581       -3.968631
 C         -12.053758      -34.847706       -4.404342
 C         -10.537950      -35.190109       -4.090591
 H          -9.239813      -32.213367       -5.021598
 H          -9.404069      -33.600872       -6.124752
 H         -13.083878      -33.567734       -5.845018
 H         -11.734513      -34.405792       -6.541507
 H          -9.923577      -33.472950       -3.001230
 H          -8.651106      -34.301758       -3.979113
 H         -12.554156      -35.742893       -4.711051
 H         -12.492718      -34.450310       -3.495650
 H         -10.388921      -35.797749       -3.184072
 H         -10.151856      -35.856323       -4.884995
