20
 generated by VMD
 C         -62.582371     -173.797745      -55.407742
 N         -63.645893     -174.165146      -55.027939
 H         -62.556152     -172.396561      -57.768200
 H         -61.639511     -173.537338      -55.883820
 C         -62.995758     -171.562866      -58.241230
 C         -62.882748     -170.204590      -57.811844
 C         -63.965004     -171.880905      -59.273178
 C         -63.772232     -169.078766      -58.338631
 C         -64.634705     -170.639465      -59.977634
 C         -65.048714     -169.652969      -58.894318
 H         -61.924984     -169.815521      -57.976383
 H         -63.103569     -170.173904      -56.742260
 H         -63.552044     -172.436630      -60.219170
 H         -64.823883     -172.473083      -58.897640
 H         -63.277424     -168.632935      -59.208332
 H         -63.898872     -168.355515      -57.592499
 H         -65.490501     -170.888367      -60.658131
 H         -63.806908     -170.120132      -60.621571
 H         -65.514420     -168.792206      -59.370308
 H         -65.727814     -170.075714      -58.183731
