20
 generated by VMD
 C         -17.582960      -48.239513       -6.893225
 N         -17.008411      -47.305706       -6.635583
 H         -16.400272      -48.744114      -10.429561
 H         -15.549545      -48.686653      -11.929274
 C         -16.314537      -48.112675      -11.363520
 C         -15.778171      -46.689423      -11.123614
 C         -17.553818      -48.001495      -12.200087
 C         -15.536019      -45.860775      -12.378221
 C         -17.390812      -47.028046      -13.407524
 C         -16.790854      -45.574615      -13.136123
 H         -14.815845      -46.776909      -10.655976
 H         -16.442137      -46.147018      -10.429030
 H         -17.775070      -49.021301      -12.653646
 H         -18.394455      -47.656055      -11.553709
 H         -14.887261      -46.473030      -13.003212
 H         -14.988750      -44.949436      -12.110449
 H         -18.397169      -47.000824      -13.871151
 H         -16.771984      -47.377914      -14.152645
 H         -16.520521      -45.140690      -14.084837
 H         -17.468689      -44.948338      -12.570445
