20
 generated by VMD
 C         -59.391262     -168.794266      -55.827751
 N         -59.265026     -168.705399      -54.710743
 H         -62.494987     -169.838348      -56.103344
 H         -59.450836     -168.837296      -56.900585
 C         -62.977612     -168.892380      -56.486431
 C         -62.747772     -168.671448      -57.913616
 C         -63.153637     -167.744598      -55.531200
 C         -63.693649     -167.613617      -58.486027
 C         -64.025124     -166.605499      -56.084251
 C         -63.800934     -166.363052      -57.648502
 H         -62.785061     -169.605896      -58.386040
 H         -61.610268     -168.424316      -57.884418
 H         -63.512733     -168.166672      -54.486801
 H         -62.222775     -167.205948      -55.346741
 H         -64.687088     -168.039627      -58.593620
 H         -63.450226     -167.513535      -59.544113
 H         -63.951588     -165.717651      -55.349396
 H         -65.149475     -166.842468      -56.020069
 H         -64.556602     -165.744446      -58.058113
 H         -62.905602     -165.721817      -57.746502
