20
 generated by VMD
 C         -49.343277     -141.367218      -45.825035
 N         -48.899956     -141.704544      -44.767635
 H         -51.370369     -138.503876      -46.188072
 H         -49.864189     -141.269669      -46.793961
 C         -52.229694     -139.221069      -46.362583
 C         -52.909012     -139.415207      -47.735550
 C         -52.799847     -140.028015      -45.257229
 C         -53.130634     -140.841248      -48.002506
 C         -53.339035     -141.446350      -45.616692
 C         -54.024857     -141.477402      -46.913940
 H         -52.165775     -139.049622      -48.482803
 H         -53.848408     -138.915283      -47.930000
 H         -51.976482     -140.150162      -44.505611
 H         -53.592140     -139.261459      -44.809639
 H         -52.167976     -141.399185      -48.180634
 H         -53.650547     -140.916168      -48.969727
 H         -54.114552     -141.792603      -44.911064
 H         -52.523540     -142.227875      -45.444332
 H         -54.274242     -142.455597      -47.196945
 H         -54.884193     -140.917847      -46.796516
