20
 generated by VMD
 C         -22.396330      -68.132912      -16.546347
 N         -21.783417      -68.272408      -15.585517
 H         -24.091732      -66.119080      -18.056725
 H         -22.784725      -67.922630      -17.635422
 C         -24.672029      -66.510101      -18.930269
 C         -23.860249      -67.075844      -20.042648
 C         -26.137434      -66.560829      -18.946133
 C         -24.474064      -68.439415      -20.337753
 C         -26.658136      -67.968735      -19.075245
 C         -26.037354      -68.678535      -20.361364
 H         -22.773802      -67.120964      -19.828577
 H         -23.943159      -66.292130      -20.904163
 H         -26.648914      -66.092216      -18.102926
 H         -26.518005      -65.976158      -19.729309
 H         -24.036684      -69.104416      -19.601368
 H         -24.097496      -68.623695      -21.292303
 H         -27.759409      -67.931595      -19.087761
 H         -26.240269      -68.592751      -18.302362
 H         -26.213581      -69.766541      -20.431917
 H         -26.565550      -68.292809      -21.264212
