20
 generated by VMD
 C         -38.396870     -109.709839      -36.377476
 N         -37.679581     -108.983459      -35.805943
 H         -41.570694     -110.904785      -37.281723
 H         -38.938499     -110.477676      -37.017376
 C         -41.755226     -111.312637      -36.287006
 C         -42.097099     -112.821945      -36.239063
 C         -42.175800     -110.515549      -35.022430
 C         -41.703144     -113.375275      -34.914295
 C         -41.978573     -111.256653      -33.759594
 C         -42.258987     -112.678978      -33.658363
 H         -41.468567     -113.301949      -36.961983
 H         -43.139175     -113.024437      -36.424755
 H         -41.436432     -109.668686      -34.975246
 H         -43.098164     -109.998161      -35.295368
 H         -40.652557     -113.404579      -34.805935
 H         -41.975319     -114.524483      -34.811745
 H         -42.397289     -110.636688      -32.936546
 H         -40.880177     -111.196198      -33.480614
 H         -41.677479     -113.037514      -32.814503
 H         -43.246895     -113.013458      -33.520473
