20
 generated by VMD
 C         -21.070271      -52.080612      -10.941380
 N         -21.452543      -53.118832      -10.553103
 H         -19.914648      -50.312481      -13.283550
 H         -20.599188      -51.210403      -11.451731
 C         -18.858234      -50.622711      -12.989844
 C         -18.418165      -51.841591      -13.701723
 C         -17.827475      -49.993603      -12.105816
 C         -16.890133      -51.801929      -14.256547
 C         -16.440763      -49.930454      -12.773006
 C         -15.966399      -51.339417      -13.155758
 H         -19.163153      -52.011131      -14.534195
 H         -18.601883      -52.657410      -13.023920
 H         -18.102089      -49.000767      -11.792162
 H         -17.859854      -50.604630      -11.184493
 H         -16.831783      -51.247372      -15.175801
 H         -16.579742      -52.832619      -14.421150
 H         -15.800744      -49.555717      -11.949643
 H         -16.384722      -49.280468      -13.588681
 H         -14.943249      -51.292210      -13.556388
 H         -15.992483      -52.014698      -12.309115
