20
 generated by VMD
 C         -26.964233      -72.125977      -17.511555
 N         -27.456520      -73.149536      -17.303129
 H         -24.569527      -70.041481      -18.792747
 H         -26.292053      -71.321259      -17.844452
 C         -25.073267      -70.476669      -19.637774
 C         -24.304638      -71.572693      -20.352551
 C         -25.655973      -69.554771      -20.543217
 C         -25.175016      -72.188950      -21.412804
 C         -26.565182      -70.141548      -21.474422
 C         -25.904350      -71.119965      -22.337885
 H         -23.863407      -72.292633      -19.524748
 H         -23.440235      -71.039207      -20.798306
 H         -26.231339      -68.735100      -20.086348
 H         -24.805208      -68.961891      -20.965111
 H         -25.967516      -72.694870      -20.806416
 H         -24.689417      -72.964874      -22.051247
 H         -27.013443      -69.400444      -22.066814
 H         -27.378466      -70.597168      -21.041210
 H         -26.556049      -71.614723      -23.103148
 H         -25.069735      -70.724815      -23.016336
