20
 generated by VMD
 C         -19.507965      -62.326813      -17.585855
 N         -20.102310      -62.236477      -16.610413
 H         -22.209524      -64.146919      -16.681292
 H         -18.831539      -62.500248      -18.372889
 C         -23.097807      -64.647293      -17.086411
 C         -23.558088      -64.174660      -18.370575
 C         -24.190317      -65.203392      -16.135103
 C         -24.563099      -65.135208      -19.139103
 C         -25.170668      -66.034271      -16.919474
 C         -25.813551      -65.531212      -18.228903
 H         -22.709549      -64.148010      -19.028395
 H         -23.845076      -63.127750      -18.378868
 H         -23.810059      -65.796127      -15.377670
 H         -24.570606      -64.348663      -15.543754
 H         -24.020466      -66.055740      -19.407200
 H         -25.049723      -64.610443      -20.005341
 H         -25.981764      -66.212433      -16.197805
 H         -24.777336      -67.025627      -17.192579
 H         -26.487629      -66.280518      -18.613081
 H         -26.333138      -64.501305      -17.988419
