20
 generated by VMD
 C         -29.405756      -90.617165      -25.013531
 N         -28.973043      -91.692955      -25.132540
 H         -32.294483      -91.451820      -27.398031
 H         -29.627392      -89.570030      -24.956839
 C         -33.056400      -90.865547      -27.825235
 C         -34.402512      -91.571068      -27.481468
 C         -33.018387      -89.553566      -28.561954
 C         -35.637897      -90.559235      -27.348801
 C         -34.329006      -88.799652      -28.625092
 C         -35.660774      -89.618767      -28.524876
 H         -34.276192      -92.044212      -26.482634
 H         -34.616360      -92.408844      -28.294619
 H         -32.372257      -88.868279      -28.051878
 H         -32.760323      -89.694382      -29.598698
 H         -35.516609      -90.245926      -26.312363
 H         -36.481110      -91.192070      -27.311268
 H         -34.428589      -88.132744      -29.486675
 H         -34.507080      -88.161980      -27.757540
 H         -36.487873      -88.943886      -28.297873
 H         -35.677624      -90.136902      -29.487223
