20
 generated by VMD
 C         -27.668428      -81.151344      -27.447523
 N         -28.759964      -81.471840      -27.583832
 H         -30.403711      -83.042656      -25.271975
 H         -26.639027      -80.812538      -27.495527
 C         -30.569330      -83.992737      -24.807100
 C         -30.415670      -84.086395      -23.368767
 C         -31.266550      -85.141357      -25.477758
 C         -31.646906      -84.502754      -22.532127
 C         -32.553143      -85.562630      -24.893541
 C         -32.378319      -85.784889      -23.313084
 H         -30.109758      -83.096008      -22.951870
 H         -29.623928      -84.666824      -23.017403
 H         -31.359854      -84.968018      -26.597385
 H         -30.576754      -85.991165      -25.515903
 H         -32.407936      -83.639961      -22.533695
 H         -31.221174      -84.743942      -21.625526
 H         -32.854568      -86.441216      -25.343096
 H         -33.315605      -84.769928      -24.996988
 H         -33.343864      -86.048592      -22.791754
 H         -31.733957      -86.620758      -23.184544
