20
 generated by VMD
 C         -49.910275     -131.456497      -46.608753
 N         -50.290974     -131.672058      -47.716423
 H         -48.434582     -131.837830      -44.050999
 H         -49.872318     -130.850464      -45.658321
 C         -48.958660     -132.276413      -43.192329
 C         -49.641842     -133.557068      -43.197380
 C         -48.715443     -131.690582      -41.835442
 C         -48.909813     -134.591110      -42.480469
 C         -48.000088     -132.750732      -40.961258
 C         -48.605183     -134.128906      -41.014462
 H         -49.798874     -133.929153      -44.238316
 H         -50.684437     -133.501038      -42.763222
 H         -48.147087     -130.742493      -41.895752
 H         -49.691235     -131.586807      -41.196102
 H         -47.916451     -134.596085      -42.844482
 H         -49.221153     -135.590637      -42.405354
 H         -48.035423     -132.265182      -39.925739
 H         -46.993767     -132.678528      -41.372292
 H         -47.972691     -134.828323      -40.533276
 H         -49.508411     -134.129990      -40.361034
