20
 generated by VMD
 C         -51.327156     -127.722656      -41.397785
 N         -51.851734     -128.646835      -41.829700
 H         -47.509541     -127.847336      -40.647747
 H         -51.184937     -126.808319      -40.824223
 C         -46.606976     -127.315544      -40.705219
 C         -45.257889     -127.754562      -40.058712
 C         -46.743431     -125.987297      -41.194748
 C         -44.027481     -127.091919      -40.772633
 C         -45.554501     -125.331543      -41.892853
 C         -44.197449     -125.590286      -41.096916
 H         -44.999165     -128.836029      -40.241009
 H         -45.157879     -127.469894      -39.002060
 H         -47.630352     -125.829063      -41.923531
 H         -47.126099     -125.347565      -40.420383
 H         -43.854565     -127.591805      -41.711685
 H         -43.117645     -127.350334      -40.216251
 H         -45.526024     -124.294167      -42.086269
 H         -45.378403     -125.768867      -42.900200
 H         -43.350552     -125.386147      -41.718990
 H         -44.046131     -124.978012      -40.179611
