20
 generated by VMD
 C         -49.973537     -131.438187      -46.624054
 N         -50.241348     -131.750946      -47.721401
 H         -48.406811     -131.844177      -43.969643
 H         -49.455761     -131.466965      -45.715504
 C         -49.005741     -132.243835      -43.125458
 C         -49.726059     -133.567474      -43.296848
 C         -48.733418     -131.723038      -41.790501
 C         -48.816372     -134.642685      -42.473274
 C         -47.944904     -132.771393      -40.975315
 C         -48.699303     -134.153137      -41.052364
 H         -49.784168     -133.826813      -44.308720
 H         -50.802773     -133.461029      -42.848343
 H         -48.075596     -130.870300      -41.840263
 H         -49.749378     -131.404480      -41.389786
 H         -47.895317     -134.865784      -43.009460
 H         -49.489609     -135.490845      -42.548328
 H         -47.946331     -132.537262      -39.957554
 H         -46.945717     -132.925003      -41.319763
 H         -48.151241     -134.880890      -40.358086
 H         -49.635612     -134.133896      -40.595875
