20
 generated by VMD
 C         -27.103886      -72.599152      -17.685869
 N         -27.824757      -73.328674      -17.200686
 H         -24.490616      -70.108231      -18.798288
 H         -26.517450      -71.659546      -18.094448
 C         -24.720482      -70.445824      -19.792971
 C         -24.269075      -71.733490      -20.318272
 C         -25.691095      -69.460930      -20.547905
 C         -25.300262      -72.279022      -21.314022
 C         -26.574322      -70.106087      -21.762131
 C         -25.926165      -71.373528      -22.364126
 H         -24.127752      -72.480247      -19.676697
 H         -23.319818      -71.627151      -20.832432
 H         -26.322004      -69.018242      -19.785749
 H         -25.095568      -68.698105      -21.015942
 H         -26.082928      -72.683678      -20.665741
 H         -24.831760      -73.132263      -21.837847
 H         -26.702644      -69.311348      -22.489357
 H         -27.488935      -70.452156      -21.279015
 H         -26.536728      -71.915764      -23.151737
 H         -25.153477      -70.897705      -22.977318
