20
 generated by VMD
 C         -29.151352      -80.416359      -27.011616
 N         -30.042416      -80.194130      -27.745888
 H         -28.128572      -83.014412      -24.252451
 H         -28.256458      -80.680038      -26.328621
 C         -29.140406      -83.090988      -24.009577
 C         -29.493683      -83.081970      -22.521442
 C         -30.022552      -84.013336      -24.922426
 C         -30.896225      -83.216446      -22.213366
 C         -31.425480      -84.099518      -24.482794
 C         -31.651102      -84.295105      -23.064419
 H         -29.116232      -82.105247      -22.024506
 H         -28.931261      -83.891968      -22.103626
 H         -30.015390      -83.867546      -26.008337
 H         -29.561718      -84.953888      -24.787256
 H         -31.469374      -82.345718      -22.317865
 H         -30.941236      -83.502502      -21.118366
 H         -31.882837      -84.923805      -25.106144
 H         -31.887447      -83.183601      -24.911409
 H         -32.723896      -84.176994      -22.758820
 H         -31.393213      -85.261841      -22.790977
