20
 generated by VMD
 C         -41.597839     -102.428024      -35.849480
 N         -41.472050     -103.590012      -35.754234
 H         -39.302189     -104.705193      -33.687847
 H         -41.751389     -101.405312      -36.010406
 C         -38.569298     -105.213493      -32.993870
 C         -37.117886     -104.689880      -32.899101
 C         -39.039783     -106.394066      -32.272511
 C         -36.490952     -104.884224      -31.509335
 C         -38.259472     -106.788269      -30.924162
 C         -36.797520     -106.350662      -30.926788
 H         -37.004639     -103.602768      -33.014378
 H         -36.408764     -105.109062      -33.638096
 H         -40.066059     -106.351158      -32.013519
 H         -38.875767     -107.339363      -32.966408
 H         -36.973301     -104.150208      -30.741329
 H         -35.393635     -104.634430      -31.708004
 H         -38.422470     -107.866417      -30.740335
 H         -38.716579     -106.214256      -30.057138
 H         -36.370754     -106.380592      -29.858280
 H         -36.177052     -106.980301      -31.508583
