20
 generated by VMD
 C         -47.949688     -134.594299      -46.834953
 N         -47.976063     -134.186279      -47.948109
 H         -50.274345     -134.371552      -44.924507
 H         -47.859600     -134.987854      -45.783470
 C         -50.601639     -135.310043      -44.384518
 C         -50.877319     -136.482834      -45.101040
 C         -51.045933     -135.148956      -42.958965
 C         -50.953156     -137.800446      -44.221588
 C         -51.249958     -136.446213      -42.134155
 C         -51.778446     -137.609375      -42.954800
 H         -50.182163     -136.696564      -45.952492
 H         -51.824318     -136.470917      -45.498676
 H         -50.459217     -134.522675      -42.346222
 H         -51.993649     -134.607666      -43.071060
 H         -49.931911     -138.233215      -44.015530
 H         -51.552422     -138.576324      -44.730347
 H         -51.795258     -136.092819      -41.178787
 H         -50.218544     -136.767731      -41.826702
 H         -51.902519     -138.539764      -42.444908
 H         -52.836578     -137.495834      -43.296009
