20
 generated by VMD
 C         -14.406490      -45.471161       -6.095496
 N         -14.506635      -45.951252       -7.084231
 H         -15.094997      -44.126427       -9.108508
 H         -14.502231      -44.093914      -10.686145
 C         -15.442831      -44.288662      -10.109376
 C         -16.468733      -43.277020      -10.610628
 C         -15.882969      -45.755371      -10.390266
 C         -16.804628      -43.584579      -12.084369
 C         -16.223021      -46.024483      -11.849201
 C         -17.309958      -45.003788      -12.353958
 H         -16.079561      -42.256836      -10.511106
 H         -17.370483      -43.205246       -9.947171
 H         -15.159457      -46.515720      -10.167270
 H         -16.671137      -45.972626       -9.671134
 H         -15.871794      -43.442673      -12.632910
 H         -17.477453      -42.816010      -12.495855
 H         -16.651951      -46.971100      -11.945225
 H         -15.319682      -45.962025      -12.489732
 H         -17.360739      -45.042320      -13.408034
 H         -18.212622      -45.294075      -11.810157
