20
 generated by VMD
 C         -12.325223      -27.163481       -2.672170
 N         -13.208123      -27.681524       -2.243380
 H         -10.624096      -26.945719       -4.114721
 H          -9.401371      -26.245325       -5.148689
 C          -9.513499      -26.872211       -4.290496
 C          -9.016792      -28.344603       -4.422822
 C          -8.822202      -26.171186       -3.054686
 C          -7.458379      -28.377192       -4.629421
 C          -7.353369      -26.275673       -3.161479
 C          -6.798293      -27.666368       -3.437643
 H          -9.505543      -28.709379       -5.301927
 H          -9.218352      -29.073721       -3.621906
 H          -9.084912      -25.130812       -3.170523
 H          -9.278064      -26.628674       -2.173493
 H          -7.166744      -27.911074       -5.637498
 H          -7.087685      -29.422380       -4.686026
 H          -6.988159      -25.937468       -2.151480
 H          -6.935425      -25.510828       -3.810866
 H          -5.752678      -27.524487       -3.631330
 H          -6.766647      -28.279306       -2.513007
