20
 generated by VMD
 C         -57.070301     -150.881424      -48.102192
 N         -58.126427     -150.929489      -48.538860
 H         -54.388092     -148.884644      -47.372410
 H         -56.059036     -150.946716      -47.651955
 C         -54.287357     -148.537949      -48.382000
 C         -53.526035     -149.375351      -49.448109
 C         -54.558971     -147.073456      -48.765789
 C         -54.338882     -149.288788      -50.683712
 C         -55.326183     -147.088715      -50.074799
 C         -54.523239     -147.851212      -51.120018
 H         -53.297138     -150.462906      -49.081112
 H         -52.609150     -148.774414      -49.633430
 H         -55.259579     -146.668655      -48.091770
 H         -53.692295     -146.466995      -48.863937
 H         -55.374855     -149.627548      -50.727821
 H         -53.748856     -149.796082      -51.433121
 H         -55.512718     -146.069260      -50.315102
 H         -56.253712     -147.679733      -49.928368
 H         -55.213955     -148.056183      -51.943790
 H         -53.518745     -147.498062      -51.483845
