20
 generated by VMD
 C         -22.972607      -53.577396      -13.845537
 N         -23.624588      -52.820343      -14.444161
 H         -20.785526      -55.186096      -14.004079
 H         -22.387022      -53.913898      -13.202013
 C         -19.615719      -54.954983      -14.039501
 C         -19.064743      -53.640636      -13.796515
 C         -18.776495      -56.147564      -14.338173
 C         -17.954544      -53.769688      -12.771485
 C         -17.533560      -56.058796      -13.475564
 C         -16.862337      -54.651611      -13.408968
 H         -19.792969      -52.868744      -13.485583
 H         -18.805634      -53.203480      -14.773339
 H         -19.379719      -56.975845      -14.103821
 H         -18.553484      -56.181240      -15.418617
 H         -18.295410      -54.191746      -11.799947
 H         -17.442904      -52.839993      -12.557191
 H         -16.759954      -56.715012      -13.763369
 H         -17.837212      -56.363510      -12.417990
 H         -16.018814      -54.740589      -12.731849
 H         -16.506443      -54.231071      -14.352900
