20
 generated by VMD
 C         -60.697723     -153.435425      -51.899837
 N         -61.395355     -154.305511      -51.734745
 H         -57.594307     -153.775696      -51.932560
 H         -60.060707     -152.602158      -51.940140
 C         -56.698158     -153.451599      -51.413929
 C         -56.502995     -153.772751      -49.955708
 C         -56.016563     -152.258255      -52.010757
 C         -55.031609     -153.936890      -49.751720
 C         -54.532356     -152.413712      -51.672985
 C         -54.314690     -152.610519      -50.222664
 H         -56.931862     -154.798599      -49.684982
 H         -57.155098     -153.082596      -49.319912
 H         -56.209934     -152.100143      -53.105236
 H         -56.467403     -151.334625      -51.550388
 H         -54.564529     -154.932648      -50.134171
 H         -54.845348     -154.083420      -48.669247
 H         -54.037544     -151.408829      -52.033131
 H         -54.049126     -153.247406      -52.249424
 H         -53.281448     -152.538284      -49.959743
 H         -54.765839     -151.688400      -49.595814
