20
 generated by VMD
 C         -31.217108      -75.658623      -21.565811
 N         -32.321373      -75.370728      -21.440424
 H         -27.759678      -75.487366      -19.870001
 H         -30.233665      -75.913429      -21.088226
 C         -27.089901      -75.344452      -20.693583
 C         -26.537294      -76.471321      -21.553177
 C         -26.133568      -74.275185      -20.479073
 C         -25.788649      -76.020500      -22.752493
 C         -25.427908      -73.766441      -21.754519
 C         -24.789906      -74.932030      -22.539293
 H         -27.290676      -77.263329      -21.754303
 H         -25.903728      -77.143150      -21.027159
 H         -26.593287      -73.393593      -20.099377
 H         -25.255756      -74.537956      -19.744898
 H         -26.608253      -75.677635      -23.443491
 H         -25.261847      -76.849159      -23.322805
 H         -24.666809      -73.012566      -21.496490
 H         -26.056860      -73.206223      -22.468397
 H         -24.315895      -74.623138      -23.494671
 H         -24.196682      -75.536583      -21.865084
