20
 generated by VMD
 C         -62.678848     -172.063858      -55.346649
 N         -62.046799     -172.989761      -55.344257
 H         -61.626377     -171.010910      -58.238373
 H         -63.157955     -171.126999      -55.515503
 C         -62.617695     -170.549927      -58.215153
 C         -62.339622     -169.157135      -57.966740
 C         -63.779297     -171.311066      -58.692051
 C         -63.573784     -168.316956      -58.181881
 C         -64.983185     -170.342407      -58.844860
 C         -64.804466     -169.141022      -57.832077
 H         -61.551117     -168.810501      -58.519917
 H         -62.049938     -169.011215      -56.824272
 H         -63.498772     -171.804886      -59.634220
 H         -63.988827     -172.149323      -57.968510
 H         -63.629257     -167.945343      -59.235336
 H         -63.517132     -167.524734      -57.450649
 H         -65.871872     -170.938904      -58.602230
 H         -65.000984     -169.939713      -59.918671
 H         -65.658707     -168.496048      -57.744873
 H         -64.763359     -169.742416      -56.862354
