20
 generated by VMD
 C         -50.361748     -130.990692      -46.441875
 N         -50.273685     -131.280624      -47.605797
 H         -48.663136     -131.899399      -44.209206
 H         -50.020996     -130.946365      -45.401394
 C         -48.813152     -132.316727      -43.232735
 C         -49.381031     -133.657150      -43.155647
 C         -48.567150     -131.490265      -41.950027
 C         -48.586208     -134.487289      -42.083542
 C         -47.810173     -132.311295      -40.958221
 C         -48.548641     -133.679993      -40.818657
 H         -49.246769     -134.075546      -44.221199
 H         -50.446911     -133.681656      -43.054798
 H         -48.091091     -130.610764      -42.449699
 H         -49.611565     -131.106598      -41.549957
 H         -47.541470     -134.706390      -42.418919
 H         -49.120926     -135.435028      -42.037472
 H         -47.834385     -131.881927      -39.897675
 H         -46.776184     -132.457779      -41.396355
 H         -48.017448     -134.159454      -40.013805
 H         -49.542965     -133.642105      -40.253773
