20
 generated by VMD
 C         -56.651009     -150.122116      -47.633350
 N         -57.713917     -150.407166      -48.104660
 H         -53.432930     -148.140930      -47.300129
 H         -55.658878     -149.770218      -47.244511
 C         -53.628460     -147.951370      -48.401348
 C         -53.135380     -148.703690      -49.652298
 C         -54.543709     -146.825394      -48.506107
 C         -54.095360     -148.911743      -50.825333
 C         -55.635788     -146.938644      -49.644165
 C         -54.924316     -147.560928      -50.986259
 H         -52.912136     -149.728088      -49.314938
 H         -52.212799     -148.083755      -49.790543
 H         -54.967396     -146.572311      -47.557327
 H         -53.981628     -145.904510      -48.873409
 H         -54.666538     -149.824448      -50.706799
 H         -53.556763     -149.011337      -51.787312
 H         -55.945919     -145.978653      -49.837719
 H         -56.418785     -147.565048      -49.174828
 H         -55.766651     -147.748169      -51.617596
 H         -54.427032     -146.784866      -51.596375
