20
 generated by VMD
 C         -38.552032     -111.280380      -36.397408
 N         -38.317299     -110.127167      -36.479969
 H         -40.119904     -114.046402      -35.117924
 H         -38.712135     -112.401703      -36.413837
 C         -41.031631     -113.459846      -35.462208
 C         -41.766338     -113.829224      -36.676777
 C         -41.702927     -112.401314      -34.597771
 C         -43.288181     -114.069344      -36.452057
 C         -43.222782     -112.803360      -34.233109
 C         -43.939716     -113.086906      -35.528633
 H         -41.281345     -114.742889      -37.146286
 H         -41.700188     -113.007065      -37.360569
 H         -41.147629     -112.354607      -33.645569
 H         -41.648926     -111.479393      -35.202602
 H         -43.461578     -115.094658      -36.160374
 H         -43.868954     -114.060555      -37.430428
 H         -43.625076     -111.925865      -33.741238
 H         -43.237659     -113.740700      -33.715836
 H         -44.933006     -113.460640      -35.382381
 H         -44.026047     -112.259598      -36.311859
