20
 generated by VMD
 C         -40.940639     -101.205719      -32.795387
 N         -42.055676     -101.474030      -32.845440
 H         -38.492409     -103.353935      -32.368862
 H         -39.936115     -100.710258      -32.945885
 C         -37.616840     -102.776146      -32.015278
 C         -36.379734     -102.768745      -32.903469
 C         -37.469601     -102.795540      -30.527626
 C         -35.228745     -101.851181      -32.356297
 C         -36.192440     -102.198174      -29.949635
 C         -34.914497     -102.408302      -30.976789
 H         -36.606857     -102.636276      -34.021023
 H         -35.993824     -103.831001      -32.878220
 H         -38.254887     -102.369576      -29.988771
 H         -37.497654     -103.895859      -30.234282
 H         -35.506184     -100.810127      -32.368778
 H         -34.320030     -102.053192      -33.010338
 H         -36.188984     -102.603088      -28.853037
 H         -36.348679     -101.139191      -29.817675
 H         -34.128651     -101.813515      -30.490639
 H         -34.687035     -103.480408      -31.024330
