20
 generated by VMD
 C         -11.597740      -41.989292       -6.535808
 N         -11.150963      -41.028931       -6.908862
 H         -14.571721      -40.843689       -8.376374
 H         -15.470573      -40.364964       -9.839041
 C         -15.203930      -41.187489       -9.231992
 C         -16.417585      -41.840572       -8.516984
 C         -14.447217      -42.203602      -10.092021
 C         -17.395967      -42.420292       -9.525846
 C         -15.392509      -42.829849      -11.120057
 C         -16.706242      -43.425938      -10.441188
 H         -16.865654      -41.077038       -7.893075
 H         -16.014256      -42.614380       -7.924345
 H         -13.548438      -41.762451      -10.596436
 H         -14.048141      -43.005730       -9.478359
 H         -17.925207      -41.613033      -10.068604
 H         -18.243605      -42.959679       -9.094056
 H         -14.915823      -43.544331      -11.743220
 H         -15.823800      -42.020020      -11.818063
 H         -17.348154      -43.827080      -11.260342
 H         -16.467827      -44.255486       -9.763085
