20
 generated by VMD
 C         -40.417999     -117.649086      -34.592941
 N         -39.464817     -117.135628      -34.996128
 H         -41.906292     -116.563332      -36.950634
 H         -41.351101     -117.984924      -34.285301
 C         -42.904011     -116.580963      -37.467121
 C         -42.841530     -116.643211      -38.974567
 C         -44.161812     -116.282249      -36.723442
 C         -44.154861     -117.352386      -39.518024
 C         -45.361858     -116.881790      -37.416775
 C         -45.446030     -116.845284      -38.894672
 H         -41.961918     -117.237839      -39.256290
 H         -42.746868     -115.638237      -39.375362
 H         -44.097328     -116.475662      -35.636650
 H         -43.992641     -115.212135      -36.682690
 H         -43.913857     -118.386452      -39.371960
 H         -44.153584     -117.073738      -40.595154
 H         -46.334396     -116.509590      -37.156368
 H         -45.413826     -117.941605      -37.034824
 H         -46.249023     -117.481651      -39.289776
 H         -45.587997     -115.728355      -39.092159
