20
 generated by VMD
 C         -68.823212     -185.798065      -66.381569
 N         -68.207245     -186.234558      -67.246323
 H         -69.477707     -183.283539      -63.741341
 H         -69.409874     -185.317276      -65.555237
 C         -69.403625     -184.103485      -63.034172
 C         -70.610031     -184.758804      -62.477676
 C         -67.994179     -184.321823      -62.411633
 C         -70.212311     -185.759201      -61.344486
 C         -67.847176     -185.416183      -61.412308
 C         -68.893906     -186.486313      -61.534256
 H         -70.927505     -185.368286      -63.301723
 H         -71.421471     -184.074234      -62.173706
 H         -67.300224     -184.511017      -63.190269
 H         -67.723152     -183.342163      -61.842453
 H         -70.925331     -186.527634      -61.178146
 H         -70.366760     -185.163391      -60.468281
 H         -67.739281     -184.997314      -60.405361
 H         -66.903267     -185.862000      -61.584087
 H         -68.826279     -187.031998      -62.621334
 H         -68.533180     -187.325989      -60.781982
