20
 generated by VMD
 C         -12.088572      -25.388823       -0.543126
 N         -12.858308      -25.860905        0.126967
 H          -8.740671      -26.736547       -1.942799
 H          -9.364155      -26.028599       -3.415256
 C          -8.450885      -26.216284       -2.883493
 C          -7.472044      -27.065340       -3.755116
 C          -7.850825      -24.941113       -2.382434
 C          -6.929524      -26.118965       -4.989011
 C          -7.306003      -24.046791       -3.538015
 C          -6.259583      -24.830803       -4.429040
 H          -7.968167      -27.942760       -4.188578
 H          -6.664573      -27.464289       -3.211872
 H          -8.631397      -24.393602       -1.905030
 H          -7.086383      -25.066500       -1.561395
 H          -7.725339      -25.823248       -5.665054
 H          -6.214312      -26.732340       -5.536549
 H          -6.711107      -23.236774       -3.057364
 H          -8.107109      -23.640701       -4.174550
 H          -6.074282      -24.183483       -5.291220
 H          -5.357566      -24.977531       -3.757692
