20
 generated by VMD
 C         -44.673847     -122.389946      -36.055519
 N         -44.055279     -121.539192      -35.484272
 H         -45.125767     -122.809547      -39.509296
 H         -44.960529     -123.189064      -36.729351
 C         -44.917934     -121.767906      -39.549263
 C         -43.541573     -121.201385      -39.423740
 C         -46.018066     -120.713600      -39.393738
 C         -43.245029     -119.964668      -40.253895
 C         -45.715229     -119.388832      -40.061714
 C         -44.312698     -118.865196      -39.803482
 H         -42.942451     -121.962234      -39.736458
 H         -43.191940     -121.000114      -38.406487
 H         -46.922005     -121.308571      -39.635925
 H         -46.074921     -120.408600      -38.311813
 H         -43.316711     -120.134514      -41.343239
 H         -42.298923     -119.501175      -40.028236
 H         -46.541470     -118.625420      -39.890476
 H         -45.831104     -119.520332      -41.142025
 H         -44.256050     -117.943214      -40.471142
 H         -44.078743     -118.554077      -38.729752
