20
 generated by VMD
 C         -38.373375     -110.689842      -36.186382
 N         -37.943645     -109.640579      -36.348995
 H         -40.071270     -113.218079      -36.310261
 H         -38.566074     -111.732559      -36.269081
 C         -41.089954     -113.183922      -35.819458
 C         -42.085777     -113.801445      -36.752266
 C         -41.561569     -112.091423      -34.820721
 C         -43.352993     -114.170357      -35.947117
 C         -42.857452     -112.433548      -34.142002
 C         -43.816078     -113.081787      -35.113087
 H         -41.696686     -114.738564      -37.146095
 H         -42.379616     -113.118500      -37.625225
 H         -40.706795     -112.206650      -34.177513
 H         -41.425835     -111.215126      -35.378300
 H         -43.248257     -115.184891      -35.341637
 H         -44.107609     -114.521637      -36.640568
 H         -43.423752     -111.618248      -33.716312
 H         -42.642689     -113.083420      -33.292484
 H         -44.758556     -113.497162      -34.574600
 H         -44.250660     -112.245918      -35.698215
