20
 generated by VMD
 C         -49.924229     -131.913864      -46.683979
 N         -50.011944     -132.574142      -47.591770
 H         -48.117100     -132.131104      -43.943542
 H         -49.834660     -131.696686      -45.612598
 C         -48.691750     -132.827072      -43.428970
 C         -49.535530     -133.994247      -43.909458
 C         -48.902817     -132.429703      -41.980534
 C         -49.435349     -135.174728      -42.866051
 C         -48.788101     -133.597946      -41.063213
 C         -49.639374     -134.789261      -41.404259
 H         -49.328426     -134.236740      -44.921127
 H         -50.668587     -133.719940      -43.840939
 H         -48.081459     -131.728058      -41.836514
 H         -49.927982     -131.951370      -41.836826
 H         -48.393368     -135.557449      -42.982605
 H         -50.012238     -136.014740      -43.289619
 H         -49.048058     -133.353424      -40.022739
 H         -47.745064     -133.761963      -41.067390
 H         -49.340008     -135.767090      -40.821247
 H         -50.703842     -134.490891      -41.367432
