20
 generated by VMD
 C         -13.617764      -45.322979       -5.750487
 N         -14.355614      -44.946415       -6.508230
 H         -15.254838      -44.363487       -9.037653
 H         -14.420641      -43.972118      -10.645304
 C         -15.373938      -44.249165      -10.128360
 C         -16.494896      -43.188156      -10.356153
 C         -15.729784      -45.637600      -10.736537
 C         -16.911730      -43.241943      -11.790802
 C         -16.183231      -45.722546      -12.188688
 C         -17.326767      -44.658752      -12.196035
 H         -16.171368      -42.175701      -10.053432
 H         -17.392418      -43.550930       -9.737952
 H         -14.784071      -46.183693      -10.563860
 H         -16.599321      -46.048485      -10.127355
 H         -16.071564      -42.917107      -12.382825
 H         -17.731457      -42.525372      -11.945244
 H         -16.590101      -46.694019      -12.463428
 H         -15.368854      -45.424953      -12.955886
 H         -17.696281      -44.686283      -13.205577
 H         -18.192406      -44.999535      -11.567659
