20
 generated by VMD
 C         -68.488617     -192.867218      -66.195496
 N         -68.376808     -193.270737      -67.288246
 H         -69.964058     -189.689301      -65.336182
 H         -68.812233     -192.510773      -65.211311
 C         -70.895569     -190.286880      -65.293953
 C         -71.637665     -190.931091      -66.457329
 C         -71.553795     -190.543320      -63.891823
 C         -72.591156     -191.971161      -66.082336
 C         -73.117088     -190.579773      -63.987900
 C         -73.649994     -191.597107      -65.015472
 H         -70.978607     -191.303101      -67.157822
 H         -72.101639     -190.110596      -67.107391
 H         -71.104729     -191.447540      -63.496326
 H         -71.217094     -189.820267      -63.091160
 H         -71.987450     -192.785660      -65.595314
 H         -73.047134     -192.282471      -67.063934
 H         -73.444725     -189.594818      -64.374268
 H         -73.496918     -190.608704      -63.012909
 H         -73.918694     -192.614014      -64.520889
 H         -74.508591     -191.199814      -65.319580
