20
 generated by VMD
 C         -40.333557     -100.213272      -30.175741
 N         -41.467716     -100.553749      -30.141241
 H         -37.270416     -101.032188      -30.236197
 H         -39.330177      -99.934013      -30.081814
 C         -36.417515     -100.645195      -30.864962
 C         -36.230156     -100.313530      -32.315548
 C         -35.328381     -100.538239      -29.957739
 C         -35.484936      -99.008804      -32.392799
 C         -34.537529      -99.307472      -30.048721
 C         -34.213097      -99.094139      -31.538454
 H         -37.167683     -100.048126      -32.841820
 H         -35.729843     -101.028793      -32.908333
 H         -35.715733     -100.603592      -28.916603
 H         -34.684719     -101.346115      -30.113903
 H         -36.224319      -98.228645      -32.172310
 H         -35.039791      -98.953094      -33.399620
 H         -33.675911      -99.414139      -29.413361
 H         -35.159657      -98.514877      -29.596371
 H         -33.650833      -98.098633      -31.636679
 H         -33.459808      -99.792213      -31.886795
