20
 generated by VMD
 C         -41.542919     -119.744949      -34.234730
 N         -41.619614     -120.463272      -35.111198
 H         -43.347862     -118.715782      -36.865601
 H         -41.416264     -118.904755      -33.521770
 C         -43.808395     -118.428101      -37.750011
 C         -43.017818     -118.355583      -39.122658
 C         -45.185780     -117.867622      -37.805607
 C         -43.858238     -118.679756      -40.317478
 C         -46.003311     -118.087494      -39.100571
 C         -45.129807     -117.948761      -40.417679
 H         -42.108940     -118.911865      -38.946915
 H         -42.734921     -117.280342      -39.207062
 H         -45.790104     -118.271843      -37.002060
 H         -45.084736     -116.719658      -37.632259
 H         -44.131382     -119.780952      -40.197704
 H         -43.228458     -118.555740      -41.164684
 H         -46.959042     -117.423531      -39.003742
 H         -46.338150     -119.193161      -39.084763
 H         -45.744385     -118.334412      -41.221043
 H         -44.853439     -116.855217      -40.510738
