20
 generated by VMD
 C         -48.762424     -140.826523      -45.347614
 N         -47.629517     -140.874298      -45.342514
 H         -51.248444     -138.755371      -45.831810
 H         -49.865696     -140.852371      -45.410271
 C         -52.167263     -139.241394      -46.168228
 C         -52.632355     -139.358658      -47.582275
 C         -52.894810     -139.740952      -45.045376
 C         -53.354176     -140.665909      -47.830540
 C         -53.699558     -140.928329      -45.343109
 C         -54.381233     -140.965927      -46.786713
 H         -51.799141     -139.293747      -48.254593
 H         -53.273205     -138.435806      -47.704372
 H         -52.282841     -140.126953      -44.184265
 H         -53.516525     -138.880188      -44.654831
 H         -52.566853     -141.352997      -47.948437
 H         -53.868694     -140.658066      -48.770523
 H         -54.356251     -141.282669      -44.492157
 H         -53.081661     -141.888901      -45.424980
 H         -54.792133     -141.967560      -46.994064
 H         -55.207851     -140.267960      -46.893402
