20
 generated by VMD
 C         -77.000107     -203.527802      -66.778816
 N         -77.799950     -204.145233      -66.234566
 H         -75.535194     -200.484695      -68.243958
 H         -76.340149     -202.958466      -67.389854
 C         -74.823318     -200.053207      -68.892708
 C         -74.768997     -198.510178      -68.743820
 C         -73.754036     -200.744461      -69.801231
 C         -73.433777     -197.990509      -68.994057
 C         -72.862633     -199.780762      -70.700142
 C         -73.086586     -198.239288      -70.493019
 H         -75.175957     -198.299118      -67.670273
 H         -75.529472     -198.008881      -69.413147
 H         -73.123993     -201.069656      -69.006622
 H         -74.251244     -201.603561      -70.335579
 H         -72.693077     -198.265259      -68.242920
 H         -73.483650     -196.901779      -68.871468
 H         -73.001740     -200.075653      -71.768166
 H         -71.743156     -199.947647      -70.440018
 H         -72.168602     -197.789505      -70.866920
 H         -73.809700     -197.913040      -71.176430
