20
 generated by VMD
 C         -41.045265     -104.366127      -35.807194
 N         -41.992970     -104.882011      -36.234928
 H         -38.003498     -103.992630      -33.448219
 H         -40.371044     -103.658134      -35.402733
 C         -38.099789     -105.025681      -33.004288
 C         -36.858517     -105.395714      -32.189449
 C         -39.325188     -105.941566      -33.205944
 C         -37.100082     -106.374817      -31.111588
 C         -39.288921     -107.025475      -32.147377
 C         -37.892097     -107.457962      -31.725416
 H         -36.520058     -104.409523      -31.673790
 H         -36.106258     -105.681030      -32.989510
 H         -40.351849     -105.484665      -33.175694
 H         -39.223412     -106.423950      -34.143002
 H         -37.623737     -106.066681      -30.253984
 H         -36.080830     -106.749680      -30.863972
 H         -39.946976     -107.931198      -32.428230
 H         -39.862720     -106.727516      -31.257193
 H         -37.928707     -108.327209      -31.125317
 H         -37.296211     -107.771515      -32.625652
