20
 generated by VMD
 C         -25.944061      -71.841255      -17.209288
 N         -26.686867      -72.498466      -16.624117
 H         -24.205505      -69.070442      -18.930973
 H         -25.220760      -71.265091      -17.790668
 C         -24.812279      -69.643852      -19.687246
 C         -24.067516      -70.730270      -20.335445
 C         -25.753601      -68.802467      -20.480310
 C         -25.098164      -71.497292      -21.131300
 C         -26.809345      -69.618179      -21.253355
 C         -25.984270      -70.701729      -21.959805
 H         -23.701300      -71.435974      -19.588816
 H         -23.178877      -70.588013      -21.109367
 H         -26.335157      -68.079597      -19.831215
 H         -25.116573      -68.220497      -21.200150
 H         -25.653902      -72.139320      -20.452520
 H         -24.525238      -72.191742      -21.789665
 H         -27.238073      -68.900139      -21.987495
 H         -27.613512      -70.117554      -20.617294
 H         -26.771580      -71.360146      -22.334684
 H         -25.475542      -70.345566      -22.864056
