20
 generated by VMD
 C         -51.110210     -145.312469      -44.300926
 N         -51.151268     -146.367828      -44.667088
 H         -53.466171     -144.961838      -46.696442
 H         -51.245567     -144.298691      -43.897751
 C         -53.613838     -144.116364      -47.381996
 C         -52.681393     -143.901703      -48.459404
 C         -54.716228     -142.968979      -47.232792
 C         -53.413876     -143.725662      -49.824661
 C         -55.501495     -142.817993      -48.548588
 C         -54.481552     -142.637543      -49.787010
 H         -51.982666     -144.877609      -48.555340
 H         -52.006721     -143.045181      -48.312817
 H         -55.433723     -143.172729      -46.484577
 H         -54.071720     -142.057816      -47.171951
 H         -53.744408     -144.754181      -50.062702
 H         -52.559334     -143.409149      -50.518940
 H         -56.343204     -142.066833      -48.390785
 H         -56.007668     -143.788483      -48.717308
 H         -55.040726     -142.679520      -50.794796
 H         -53.936485     -141.533066      -49.791428
