20
 generated by VMD
 C         -51.687679     -145.998688      -43.876057
 N         -51.532104     -146.436432      -44.990982
 H         -53.744259     -145.357513      -46.827953
 H         -51.994152     -145.624023      -42.931583
 C         -53.888302     -144.817871      -47.740433
 C         -52.837536     -144.615067      -48.720234
 C         -54.815510     -143.567078      -47.504219
 C         -53.391083     -143.993698      -50.077484
 C         -55.428158     -143.031509      -48.769241
 C         -54.383450     -142.784454      -49.871510
 H         -52.545349     -145.676788      -48.962029
 H         -52.090759     -144.148010      -48.218521
 H         -55.534451     -143.835281      -46.690327
 H         -53.967133     -142.796906      -47.138603
 H         -53.918282     -144.847824      -50.688358
 H         -52.432884     -143.581482      -50.637115
 H         -55.890862     -141.984680      -48.579689
 H         -56.185909     -143.775467      -49.008862
 H         -54.846413     -142.448059      -50.748409
 H         -53.877277     -141.891708      -49.609459
