20
 generated by VMD
 C         -28.843782      -88.241013      -25.492323
 N         -28.703123      -87.354164      -26.206585
 H         -31.221926      -89.527634      -27.057791
 H         -29.152500      -88.996078      -24.759218
 C         -32.189808      -89.141167      -26.832167
 C         -32.885677      -89.062653      -25.581060
 C         -32.921379      -89.154007      -28.090511
 C         -33.922081      -87.892563      -25.440495
 C         -33.966473      -87.880890      -27.985041
 C         -34.817139      -87.924362      -26.746820
 H         -32.171440      -89.082985      -24.809063
 H         -33.403595      -89.977715      -25.336437
 H         -32.296310      -89.109276      -28.946608
 H         -33.665012      -89.916855      -28.227743
 H         -33.371552      -86.932373      -25.423851
 H         -34.413868      -88.125725      -24.561310
 H         -34.560734      -87.913879      -28.954290
 H         -33.417866      -86.942612      -27.927174
 H         -35.583866      -87.022018      -26.653837
 H         -35.493912      -88.865913      -26.758652
