20
 generated by VMD
 C         -20.623276      -64.210709      -16.535055
 N         -19.794394      -63.541210      -16.958870
 H         -23.353765      -63.422611      -17.456907
 H         -21.563391      -64.694107      -16.209410
 C         -23.913000      -64.375694      -17.777250
 C         -24.567606      -64.355995      -19.112770
 C         -24.351225      -65.275566      -16.672104
 C         -24.728899      -65.809067      -19.565031
 C         -24.652323      -66.698540      -17.154236
 C         -25.471886      -66.646301      -18.442080
 H         -24.000795      -63.696526      -19.912704
 H         -25.487429      -63.710758      -19.056362
 H         -23.499971      -65.456200      -15.944026
 H         -25.149740      -64.803886      -16.102606
 H         -23.721336      -66.150818      -19.916626
 H         -25.284754      -65.782211      -20.505531
 H         -25.321890      -67.053268      -16.333719
 H         -23.848026      -67.414932      -17.226494
 H         -25.655066      -67.716553      -18.751881
 H         -26.403061      -66.134834      -18.198532
