20
 generated by VMD
 C         -22.340021      -55.162411      -17.295448
 N         -22.807423      -54.951908      -18.276165
 H         -20.964344      -56.289219      -14.422636
 H         -21.787151      -54.913002      -16.309258
 C         -20.571232      -57.259457      -14.293458
 C         -20.826458      -57.923862      -12.868212
 C         -19.486235      -57.803982      -15.167848
 C         -20.950377      -59.444225      -13.076360
 C         -19.640148      -59.364067      -15.364153
 C         -19.685593      -60.044991      -13.901372
 H         -21.716349      -57.461647      -12.476670
 H         -19.874762      -57.709072      -12.324430
 H         -19.361725      -57.326031      -16.169430
 H         -18.597454      -57.600727      -14.608967
 H         -21.934509      -59.681675      -13.510988
 H         -20.881851      -59.973953      -12.096292
 H         -18.761684      -59.656326      -15.957100
 H         -20.550537      -59.649704      -15.922684
 H         -19.803913      -61.147804      -13.938160
 H         -18.721485      -59.800228      -13.312038
