20
 generated by VMD
 C         -63.475792     -174.734070      -55.866859
 N         -62.382980     -174.590561      -56.169094
 H         -65.504196     -173.353592      -57.624817
 H         -64.512482     -174.910675      -55.677200
 C         -65.128555     -172.552414      -58.205856
 C         -65.390572     -171.083649      -57.884525
 C         -64.604172     -172.695358      -59.677582
 C         -64.074318     -170.140350      -58.117363
 C         -63.441299     -171.675751      -60.079502
 C         -63.644917     -170.272324      -59.581081
 H         -65.691971     -170.937149      -56.837551
 H         -66.137939     -170.622009      -58.489616
 H         -64.258751     -173.629562      -59.898674
 H         -65.429871     -172.649124      -60.340126
 H         -63.348839     -170.510620      -57.423252
 H         -64.282669     -169.087433      -57.872093
 H         -63.185425     -171.845993      -61.123177
 H         -62.461483     -172.041504      -59.591854
 H         -62.692657     -169.811264      -59.678516
 H         -64.265480     -169.777573      -60.298676
