20
 generated by VMD
 C         -20.045109      -61.881359      -17.727648
 N         -19.712757      -61.665695      -16.640722
 H         -21.903351      -65.096817      -16.697968
 H         -20.094643      -61.923328      -18.756151
 C         -22.962883      -65.056252      -17.070181
 C         -23.165873      -64.295677      -18.315729
 C         -24.122061      -65.300522      -16.078728
 C         -24.409994      -64.750000      -18.940199
 C         -25.317480      -65.845764      -16.743444
 C         -25.666048      -64.954865      -17.974283
 H         -22.391344      -64.586670      -18.946787
 H         -23.119431      -63.260735      -18.199162
 H         -23.739902      -65.746315      -15.113214
 H         -24.481770      -64.353134      -15.644277
 H         -24.277178      -65.771706      -19.331766
 H         -24.685183      -64.152283      -19.766314
 H         -26.233521      -65.675575      -16.084997
 H         -25.127954      -66.897026      -17.080437
 H         -26.341919      -65.660912      -18.525522
 H         -26.219357      -64.067848      -17.606697
