20
 generated by VMD
 C          -2.689748       -9.720966        0.089448
 N          -1.963911       -8.866571        0.285046
 H          -2.020597      -11.386794        2.814440
 H          -2.518599      -12.152368        4.237782
 C          -2.742352      -12.170267        3.153883
 C          -2.569736      -13.473524        2.452398
 C          -4.200711      -11.602138        2.825129
 C          -3.596322      -14.520342        2.874629
 C          -5.312423      -12.632874        3.155872
 C          -5.036185      -14.037458        2.630374
 H          -1.552189      -13.869031        2.574749
 H          -2.652270      -13.304089        1.350553
 H          -4.412537      -10.685026        3.426287
 H          -4.214355      -11.392070        1.737048
 H          -3.427902      -14.764146        3.948593
 H          -3.345125      -15.500881        2.372213
 H          -6.245585      -12.311538        2.728970
 H          -5.487362      -12.674050        4.213395
 H          -5.847536      -14.742775        2.848696
 H          -5.030002      -13.858503        1.518858
