20
 generated by VMD
 C         -47.548298     -137.197662      -46.123230
 N         -47.125256     -136.639740      -47.100780
 H         -50.504082     -136.093521      -44.753563
 H         -47.702442     -137.528702      -45.072483
 C         -51.097179     -137.045242      -44.807743
 C         -51.359257     -137.947922      -46.080994
 C         -52.185795     -136.867508      -43.826229
 C         -52.124577     -139.200470      -45.619507
 C         -52.967144     -138.191101      -43.550983
 C         -53.378780     -139.035797      -44.813271
 H         -50.524948     -138.223984      -46.675159
 H         -52.209633     -137.436646      -46.648788
 H         -51.785332     -136.558762      -42.824200
 H         -52.967136     -136.157532      -44.175304
 H         -51.508270     -139.760696      -44.974438
 H         -52.244385     -139.871658      -46.459694
 H         -53.738430     -137.928009      -42.859318
 H         -52.381042     -138.804581      -42.875038
 H         -53.737156     -139.924469      -44.542740
 H         -54.096664     -138.435196      -45.339054
