20
 generated by VMD
 C         -71.864960     -199.173370      -64.780724
 N         -70.782494     -198.919022      -65.105774
 H         -72.032318     -196.529984      -66.516808
 H         -72.955696     -199.206161      -64.714127
 C         -72.745178     -195.991364      -67.120506
 C         -72.952843     -194.519363      -66.758034
 C         -73.139214     -196.482193      -68.484032
 C         -73.592995     -193.693909      -68.066833
 C         -74.508049     -195.939728      -68.983894
 C         -74.803207     -194.544495      -68.584404
 H         -71.936005     -194.179749      -66.528381
 H         -73.799690     -194.412247      -65.967514
 H         -72.378471     -196.040207      -69.061417
 H         -73.002762     -197.518311      -68.680321
 H         -72.819023     -193.669235      -68.894661
 H         -73.910995     -192.704407      -67.717903
 H         -75.301445     -196.503052      -68.499519
 H         -74.566620     -196.132431      -70.109848
 H         -75.101265     -194.050369      -69.464462
 H         -75.547104     -194.388046      -67.659370
