20
 generated by VMD
 C         -24.388346      -69.964157      -16.547583
 N         -24.524952      -70.431671      -15.463807
 H         -23.693373      -67.355736      -19.081820
 H         -24.331348      -69.608437      -17.500139
 C         -24.442820      -67.942322      -19.631033
 C         -23.807241      -68.733627      -20.864946
 C         -25.879179      -67.698769      -19.407228
 C         -24.672703      -69.927452      -21.163218
 C         -26.629606      -68.886665      -19.870407
 C         -26.086384      -69.515121      -21.146206
 H         -22.645102      -68.990196      -20.702297
 H         -23.895260      -68.004440      -21.724987
 H         -26.142307      -67.601707      -18.347485
 H         -26.111036      -66.910286      -20.073902
 H         -24.333963      -70.844971      -20.524834
 H         -24.385521      -70.224670      -22.173084
 H         -27.691889      -68.584854      -20.022766
 H         -26.574663      -69.681808      -19.068354
 H         -26.650724      -70.446205      -21.337116
 H         -26.196579      -68.764427      -21.979685
