20
 generated by VMD
 C         -43.249081     -121.010460      -35.508343
 N         -42.858685     -120.728340      -34.482819
 H         -44.123013     -121.551788      -38.807556
 H         -43.709484     -121.095329      -36.515820
 C         -44.156834     -120.463646      -38.769707
 C         -43.121548     -119.814995      -39.627747
 C         -45.365158     -119.721420      -38.305435
 C         -43.801964     -119.061745      -40.745342
 C         -45.918087     -118.787956      -39.325768
 C         -44.766182     -118.054443      -40.040901
 H         -42.651993     -120.633842      -40.137882
 H         -42.466148     -119.248207      -39.031452
 H         -46.205452     -120.399612      -38.043213
 H         -45.219944     -119.207718      -37.359177
 H         -44.377731     -119.471252      -41.552231
 H         -42.979107     -118.536926      -41.327248
 H         -46.589462     -118.008408      -38.908321
 H         -46.477196     -119.366692      -40.174374
 H         -45.196102     -117.513420      -40.940052
 H         -44.311596     -117.367653      -39.286423
