20
 generated by VMD
 C         -73.867874     -201.538406      -65.421608
 N         -72.894501     -201.028854      -65.813019
 H         -75.279305     -198.163376      -67.008217
 H         -74.765198     -202.082199      -64.981232
 C         -74.707108     -197.671021      -67.774437
 C         -74.898514     -196.196045      -68.057892
 C         -74.415283     -198.487320      -68.991348
 C         -73.479500     -195.662170      -68.459862
 C         -73.574432     -197.673615      -69.998375
 C         -72.625374     -196.670883      -69.273247
 H         -75.352386     -195.741592      -67.195358
 H         -75.499359     -196.164322      -68.932274
 H         -73.874580     -199.429855      -68.658241
 H         -75.359947     -198.708847      -69.630074
 H         -72.970085     -195.311310      -67.572632
 H         -73.722412     -194.804398      -69.087975
 H         -74.180962     -197.157516      -70.706451
 H         -73.010712     -198.299255      -70.744423
 H         -71.984688     -197.228928      -68.647568
 H         -71.924286     -196.010498      -69.933540
