20
 generated by VMD
 C         -78.991249     -206.765106      -75.367920
 N         -79.604286     -207.087051      -76.331863
 H         -78.390907     -209.648010      -73.241615
 H         -78.340363     -206.451004      -74.553467
 C         -77.870018     -209.801544      -72.230782
 C         -76.728973     -208.818451      -71.954521
 C         -78.272179     -210.881638      -71.240166
 C         -76.695099     -208.314102      -70.567581
 C         -78.319962     -210.161591      -69.813850
 C         -76.910530     -209.498596      -69.546219
 H         -76.840096     -207.986847      -72.659271
 H         -75.807167     -209.372208      -72.222015
 H         -79.119934     -211.586655      -71.267815
 H         -77.380981     -211.510239      -71.289520
 H         -77.465843     -207.487457      -70.477417
 H         -75.686874     -207.830551      -70.480225
 H         -78.465416     -210.987503      -69.145134
 H         -79.179321     -209.414963      -69.608429
 H         -77.077446     -209.059372      -68.540367
 H         -76.029907     -210.104156      -69.555450
