20
 generated by VMD
 C         -40.458023      -99.826775      -29.302128
 N         -39.833824     -100.158875      -28.383724
 H         -37.357979      -98.727814      -30.721369
 H         -41.169968      -99.662788      -30.039104
 C         -36.381279      -99.102524      -30.774664
 C         -35.838169      -99.136543      -32.197124
 C         -35.415295      -98.753647      -29.685001
 C         -34.774761      -98.105461      -32.370632
 C         -34.302731      -97.794632      -29.970501
 C         -33.673820      -98.149841      -31.361973
 H         -36.737652      -98.967087      -32.795372
 H         -35.527275     -100.148300      -32.446762
 H         -35.934151      -98.440094      -28.764103
 H         -35.012436      -99.696541      -29.405218
 H         -35.143486      -97.098999      -32.637199
 H         -34.211433      -98.343742      -33.333706
 H         -33.445545      -97.940544      -29.252554
 H         -34.749775      -96.756790      -29.977127
 H         -32.811157      -97.439445      -31.635538
 H         -33.207005      -99.135063      -31.328970
