20
 generated by VMD
 C          -3.660229      -20.140446        3.357918
 N          -4.135194      -19.195475        3.003414
 H          -5.206021      -19.810228       -0.142022
 H          -6.259615      -21.062393       -0.928760
 C          -6.070736      -19.992435       -0.793900
 C          -5.707829      -19.560068       -2.153824
 C          -7.351484      -19.330772       -0.308219
 C          -6.792468      -19.787647       -3.157780
 C          -8.484892      -19.662365       -1.333764
 C          -8.117628      -19.212412       -2.725251
 H          -4.730649      -20.060541       -2.477453
 H          -5.486981      -18.506243       -2.189793
 H          -7.552571      -19.566177        0.696982
 H          -7.233880      -18.286139       -0.164547
 H          -6.884270      -20.866367       -3.372180
 H          -6.555929      -19.258617       -4.109522
 H          -9.473070      -19.246445       -0.987075
 H          -8.573595      -20.760050       -1.243471
 H          -8.883558      -19.424149       -3.471651
 H          -7.945410      -18.120840       -2.793689
