20
 generated by VMD
 C         -63.296875     -174.827011      -55.218716
 N         -62.725151     -174.333679      -56.072556
 H         -65.067139     -173.388245      -57.733883
 H         -63.814590     -175.401398      -54.457813
 C         -64.719559     -172.469772      -58.286415
 C         -64.660271     -171.168686      -57.503098
 C         -64.443245     -172.496368      -59.804768
 C         -64.012115     -169.952087      -58.168571
 C         -63.669075     -171.302383      -60.309956
 C         -64.104668     -169.863464      -59.766747
 H         -64.231552     -171.359711      -56.566143
 H         -65.823204     -170.982086      -57.229752
 H         -63.803925     -173.282883      -59.972851
 H         -65.355881     -172.576355      -60.312214
 H         -62.914921     -169.986160      -57.998146
 H         -64.270035     -168.974655      -57.706486
 H         -63.706821     -171.282379      -61.431366
 H         -62.601093     -171.391235      -59.955788
 H         -63.519066     -169.050385      -60.136372
 H         -65.178116     -169.605164      -60.022038
