20
 generated by VMD
 C         -28.032944      -72.999527      -18.242973
 N         -28.741320      -73.537407      -17.509386
 H         -24.787281      -71.676910      -18.797564
 H         -27.582136      -72.326492      -19.094894
 C         -25.307137      -71.774788      -19.728155
 C         -24.629898      -72.819229      -20.626455
 C         -25.842300      -70.496788      -20.433603
 C         -25.144766      -72.881271      -21.997536
 C         -26.566156      -70.934196      -21.858374
 C         -25.430641      -71.536758      -22.696428
 H         -24.717419      -73.814720      -20.197086
 H         -23.538668      -72.688919      -20.638268
 H         -26.547564      -69.816917      -19.886782
 H         -25.035934      -69.805321      -20.679838
 H         -25.972792      -73.604736      -22.048241
 H         -24.395895      -73.469406      -22.521450
 H         -27.077835      -70.103920      -22.270502
 H         -27.274021      -71.661987      -21.728922
 H         -25.513279      -71.813728      -23.723938
 H         -24.470913      -70.900726      -22.561714
