20
 generated by VMD
 C         -12.757312      -27.947723       -5.759598
 N         -13.086818      -28.525126       -6.651402
 H         -12.021861      -31.684494       -4.682471
 H         -11.166930      -30.281605       -5.160887
 C         -11.074281      -31.213335       -4.657921
 C          -9.984566      -32.038982       -5.356406
 C         -10.738588      -30.942854       -3.219586
 C          -8.584169      -31.213417       -5.282460
 C          -9.375368      -30.329025       -3.005959
 C          -8.264864      -31.113703       -3.745568
 H         -10.043796      -32.228928       -6.389047
 H          -9.855802      -33.074638       -4.863905
 H         -11.549079      -30.264111       -2.844156
 H         -10.780174      -31.877695       -2.619421
 H          -8.818440      -30.149170       -5.649558
 H          -7.760902      -31.639767       -5.923285
 H          -9.220383      -30.210632       -1.888418
 H          -9.335107      -29.335516       -3.406626
 H          -7.292375      -30.648579       -3.629198
 H          -8.225288      -32.099453       -3.352669
