20
 generated by VMD
 C         -69.813423     -184.798584      -66.544655
 N         -69.005623     -184.498169      -67.291748
 H         -69.829155     -183.427216      -63.062077
 H         -70.570816     -185.088242      -65.754944
 C         -69.041763     -183.477142      -62.286697
 C         -69.506943     -184.506927      -61.295441
 C         -68.143791     -182.400177      -61.963093
 C         -68.233459     -185.145889      -60.796093
 C         -66.916145     -183.010147      -61.293991
 C         -67.249298     -184.066772      -60.266502
 H         -70.112152     -185.315750      -61.594917
 H         -69.986588     -183.894409      -60.485485
 H         -67.671890     -181.971725      -62.939850
 H         -68.708023     -181.649963      -61.446640
 H         -67.802467     -185.804718      -61.566368
 H         -68.358597     -185.691177      -59.866329
 H         -66.326172     -182.234451      -60.787628
 H         -66.429665     -183.395966      -62.184761
 H         -66.267654     -184.575821      -59.912361
 H         -67.718506     -183.651779      -59.285908
