20
 generated by VMD
 C         -40.227314     -100.272949      -30.148928
 N         -40.943493     -100.412453      -31.085928
 H         -37.377899     -101.953827      -30.592602
 H         -39.576439      -99.981140      -29.402121
 C         -36.471478     -101.372169      -30.933445
 C         -36.473614     -100.755905      -32.341015
 C         -35.475208     -101.132812      -29.925297
 C         -36.001488      -99.312050      -32.383072
 C         -34.665287      -99.664040      -30.003483
 C         -34.596672      -99.167084      -31.538719
 H         -37.450130     -100.784096      -32.862068
 H         -35.813557     -101.209229      -33.027317
 H         -35.772442     -101.293709      -28.834476
 H         -34.685337     -101.824776      -30.132896
 H         -36.718670      -98.592644      -31.903196
 H         -35.875710      -98.903748      -33.439472
 H         -33.738892      -99.750053      -29.467123
 H         -35.333447      -98.953659      -29.459394
 H         -34.263023      -98.112305      -31.542427
 H         -33.856682      -99.792542      -31.985386
