20
 generated by VMD
 C         -63.187595     -173.026871      -55.535381
 N         -62.893417     -173.913361      -54.883682
 H         -61.830471     -171.677536      -58.153736
 H         -63.396126     -172.257874      -56.234150
 C         -62.683624     -171.052109      -58.310925
 C         -62.426796     -169.557404      -58.040581
 C         -63.766922     -171.607422      -59.151104
 C         -63.703060     -168.748154      -58.289795
 C         -64.836517     -170.642944      -59.371319
 C         -64.937065     -169.599976      -58.344185
 H         -61.605896     -169.179749      -58.685429
 H         -62.071796     -169.332489      -56.976524
 H         -63.363373     -172.031525      -60.084503
 H         -64.237915     -172.548309      -58.981789
 H         -63.541103     -168.148621      -59.316238
 H         -63.888477     -167.985855      -57.516487
 H         -65.744316     -171.253540      -59.279911
 H         -64.826797     -170.368301      -60.439777
 H         -65.800476     -169.017044      -58.458950
 H         -65.087852     -170.000061      -57.323223
