20
 generated by VMD
 C         -47.984516     -124.963829      -38.602150
 N         -47.105721     -125.729126      -38.732063
 H         -45.578651     -123.018951      -37.875557
 H         -48.851273     -124.293884      -38.568462
 C         -45.085403     -122.897171      -38.818848
 C         -44.001160     -123.789230      -39.389473
 C         -45.723289     -121.789780      -39.636192
 C         -44.479790     -124.264259      -40.853802
 C         -46.036797     -122.375328      -41.043011
 C         -44.783558     -122.966972      -41.660816
 H         -44.097225     -124.759811      -38.818825
 H         -43.044533     -123.402679      -39.246548
 H         -46.538742     -121.348747      -39.166321
 H         -44.880882     -121.088478      -39.600643
 H         -45.409687     -124.866661      -40.854538
 H         -43.764668     -124.916458      -41.385509
 H         -46.524723     -121.531097      -41.590370
 H         -46.812462     -123.251991      -41.083706
 H         -45.146137     -123.348083      -42.608700
 H         -43.961540     -122.277290      -41.824398
