20
 generated by VMD
 C         -10.434870      -35.890709       -9.020618
 N         -10.156744      -34.852058       -8.738457
 H         -12.987300      -36.925842       -6.783675
 H         -14.401850      -37.617863       -5.731866
 C         -13.758877      -37.769382       -6.627997
 C         -12.984151      -39.085865       -6.616522
 C         -14.824848      -37.741779       -7.792359
 C         -13.910879      -40.374786       -6.582142
 C         -15.666388      -39.115330       -7.841231
 C         -14.753028      -40.358498       -7.837892
 H         -12.343358      -39.059132       -5.721370
 H         -12.326837      -39.188683       -7.503922
 H         -15.590897      -36.897369       -7.693843
 H         -14.292798      -37.702869       -8.759356
 H         -14.502218      -40.365540       -5.639234
 H         -13.237212      -41.270874       -6.645404
 H         -16.266293      -39.164803       -8.784469
 H         -16.356844      -39.171928       -7.010040
 H         -15.355939      -41.291176       -7.896730
 H         -14.148738      -40.374973       -8.767406
