20
 generated by VMD
 C         -12.827804      -28.716152       -5.957926
 N         -13.075151      -28.707903       -7.046461
 H         -12.157883      -31.350914       -4.943443
 H         -11.086555      -29.895098       -5.033546
 C         -11.115505      -30.944101       -4.754480
 C         -10.090500      -31.668535       -5.616980
 C         -10.846731      -31.008621       -3.272101
 C          -8.653873      -31.452902       -5.211078
 C          -9.420379      -30.936543       -2.849862
 C          -8.495911      -31.758667       -3.664855
 H         -10.191533      -31.357855       -6.634876
 H         -10.467608      -32.672665       -5.564192
 H         -11.366261      -30.174553       -2.780596
 H         -11.265812      -31.908295       -2.870266
 H          -8.396544      -30.432442       -5.414823
 H          -8.004039      -32.118156       -5.735979
 H          -9.364774      -31.190178       -1.815516
 H          -9.005038      -29.880487       -2.885113
 H          -7.453096      -31.410328       -3.424984
 H          -8.677092      -32.820938       -3.442274
