20
 generated by VMD
 C         -31.703791      -78.919357      -26.453371
 N         -30.987696      -78.120453      -26.799328
 H         -28.713268      -80.837120      -25.230135
 H         -32.260990      -79.911629      -26.342400
 C         -28.896276      -81.135101      -24.131544
 C         -27.642609      -81.159889      -23.296377
 C         -29.890224      -82.246445      -23.821020
 C         -27.939867      -81.244537      -21.829226
 C         -30.211975      -82.241241      -22.396227
 C         -29.023603      -82.257729      -21.514729
 H         -26.971088      -80.283051      -23.592695
 H         -27.074423      -82.016777      -23.659521
 H         -30.899857      -82.184807      -24.421530
 H         -29.372965      -83.080368      -24.216927
 H         -28.425627      -80.259903      -21.623535
 H         -27.081987      -81.371254      -21.235193
 H         -30.692518      -83.217369      -22.110048
 H         -31.001938      -81.384140      -22.288891
 H         -29.449934      -82.060295      -20.503687
 H         -28.539415      -83.295853      -21.689526
