20
 generated by VMD
 C         -13.141742      -28.633617       -5.648595
 N         -12.718161      -27.616556       -5.424499
 H         -11.416218      -30.872742       -3.299136
 H         -11.133525      -29.472198       -4.043736
 C         -10.549062      -30.344265       -3.672918
 C          -9.812380      -31.014227       -4.762402
 C          -9.660887      -29.780191       -2.615611
 C          -8.675976      -30.147509       -5.310156
 C          -8.678996      -28.829395       -3.157870
 C          -7.828137      -29.532333       -4.226145
 H         -10.560479      -31.432842       -5.491712
 H          -9.322558      -31.881548       -4.444485
 H         -10.316788      -29.285557       -1.899319
 H          -9.206114      -30.658106       -2.064021
 H          -9.065867      -29.429121       -5.987488
 H          -8.012574      -30.696985       -5.956442
 H          -8.039674      -28.394299       -2.333237
 H          -9.158831      -27.935280       -3.586002
 H          -7.168043      -28.800386       -4.625372
 H          -7.243364      -30.359087       -3.703430
