20
 generated by VMD
 C         -69.572037     -185.076645      -66.670197
 N         -69.101562     -184.833008      -67.725517
 H         -69.413284     -183.452805      -63.228855
 H         -70.099876     -185.304504      -65.811760
 C         -69.234344     -183.275040      -62.162090
 C         -69.687561     -184.474976      -61.306107
 C         -68.139458     -182.323502      -61.620232
 C         -68.451538     -185.336517      -60.943306
 C         -66.882202     -183.280472      -61.327263
 C         -67.325691     -184.439957      -60.439281
 H         -70.373650     -185.183945      -61.819050
 H         -70.073814     -184.139389      -60.372520
 H         -67.942917     -181.533234      -62.405159
 H         -68.454002     -181.782394      -60.635670
 H         -68.116272     -185.958725      -61.710304
 H         -68.733261     -185.896133      -60.061390
 H         -66.169975     -182.759033      -60.710827
 H         -66.420181     -183.522110      -62.346588
 H         -66.363449     -185.039978      -59.991390
 H         -67.715332     -183.932449      -59.549519
