20
 generated by VMD
 C         -69.737000     -180.272919      -61.620678
 N         -69.246185     -180.959396      -62.420517
 H         -66.768364     -180.209763      -59.416470
 H         -70.101936     -179.614380      -60.798676
 C         -66.249794     -179.358994      -59.693424
 C         -65.372078     -179.578751      -60.893322
 C         -65.926163     -178.179077      -58.817780
 C         -65.284172     -178.361908      -61.780087
 C         -65.765450     -176.911850      -59.682549
 C         -64.862473     -177.138428      -60.910854
 H         -65.663490     -180.351608      -61.575191
 H         -64.395111     -179.775925      -60.505402
 H         -66.816071     -178.029800      -58.193516
 H         -65.145134     -178.521927      -58.157982
 H         -66.222382     -178.141724      -62.281738
 H         -64.628036     -178.562347      -62.656296
 H         -65.078476     -176.248505      -59.128635
 H         -66.771561     -176.483719      -59.907036
 H         -64.852509     -176.342926      -61.694225
 H         -63.847210     -177.379227      -60.778927
