20
 generated by VMD
 C         -36.616123      -98.232063      -26.369394
 N         -37.616661      -98.357407      -26.939102
 H         -36.434708      -96.190285      -28.702944
 H         -35.770874      -98.167099      -25.746403
 C         -35.703403      -96.050247      -29.528240
 C         -35.424244      -96.901947      -30.613861
 C         -34.470158      -95.293243      -29.066801
 C         -35.126457      -96.009827      -31.813520
 C         -34.011185      -94.442390      -30.286690
 C         -33.849327      -95.155991      -31.631138
 H         -36.347080      -97.356987      -30.884878
 H         -34.717457      -97.681847      -30.371887
 H         -34.600113      -94.658211      -28.179558
 H         -33.575317      -95.975449      -28.866056
 H         -35.990166      -95.392632      -31.973839
 H         -34.891907      -96.565735      -32.750710
 H         -33.139294      -93.921669      -30.014364
 H         -34.731113      -93.595291      -30.408585
 H         -33.601852      -94.323288      -32.374767
 H         -33.083241      -95.720070      -31.449718
