20
 generated by VMD
 C         -13.553178      -43.196239       -6.311752
 N         -12.914566      -42.726368       -7.096259
 H         -14.697248      -44.561008       -8.542201
 H         -14.171426      -43.172871       -9.535692
 C         -14.986144      -43.942192       -9.463005
 C         -16.420160      -43.380234       -9.161613
 C         -15.134385      -44.802513      -10.655929
 C         -17.061491      -42.631977      -10.365604
 C         -15.649898      -44.015247      -11.858220
 C         -17.070793      -43.482475      -11.622788
 H         -16.404785      -42.809353       -8.272215
 H         -17.068953      -44.231953       -8.982640
 H         -14.258075      -45.321983      -10.979572
 H         -15.834892      -45.638771      -10.438397
 H         -16.567762      -41.681519      -10.504560
 H         -18.106108      -42.437748      -10.137148
 H         -15.595657      -44.570980      -12.785353
 H         -14.892942      -43.245174      -11.929914
 H         -17.307207      -42.820499      -12.485188
 H         -17.835789      -44.331905      -11.594329
