20
 generated by VMD
 C          -1.628480       -8.527713        0.235594
 N          -2.427831       -7.715327        0.304368
 H          -3.413352       -9.261133        2.491906
 H          -2.082256      -10.302834        2.350024
 C          -3.057283      -10.293360        2.812693
 C          -3.864836      -11.407596        2.187231
 C          -2.988753      -10.262020        4.286468
 C          -3.506677      -12.756183        2.849959
 C          -2.608070      -11.639131        4.817985
 C          -3.515925      -12.740298        4.341353
 H          -3.814568      -11.431161        1.104687
 H          -4.916047      -11.145374        2.314497
 H          -2.184049       -9.558451        4.523766
 H          -3.913001       -9.807038        4.746619
 H          -2.539780      -12.927562        2.442179
 H          -4.158606      -13.457123        2.364753
 H          -2.603889      -11.625401        5.922139
 H          -1.573874      -11.909575        4.450810
 H          -3.236841      -13.689403        4.800746
 H          -4.517537      -12.537053        4.772143
