20
 generated by VMD
 C          -2.155919      -17.858587        2.226148
 N          -1.681884      -17.033543        2.803334
 H          -5.222321      -17.753033        0.920160
 H          -5.071340      -18.954552       -0.407135
 C          -5.788400      -18.209896        0.088443
 C          -6.120010      -17.097408       -0.934870
 C          -7.051162      -18.943064        0.514971
 C          -6.787381      -17.705032       -2.119195
 C          -7.927212      -19.476978       -0.661599
 C          -8.071934      -18.382320       -1.728075
 H          -5.206026      -16.538282       -1.160311
 H          -6.784748      -16.443596       -0.369588
 H          -6.793836      -19.833256        1.025452
 H          -7.727221      -18.224731        1.022983
 H          -6.158478      -18.476297       -2.667743
 H          -7.138359      -16.888180       -2.795161
 H          -8.907151      -19.747101       -0.286293
 H          -7.458579      -20.349760       -1.133281
 H          -8.614714      -18.768715       -2.606061
 H          -8.716847      -17.584698       -1.347075
