20
 generated by VMD
 C         -58.098862     -150.822662      -49.005760
 N         -58.196171     -151.902328      -48.662354
 H         -55.906887     -149.908386      -47.978851
 H         -57.839603     -149.811661      -49.353645
 C         -55.312626     -149.456116      -48.733372
 C         -54.334095     -150.406952      -49.510342
 C         -55.151863     -147.962326      -48.896873
 C         -54.135941     -150.021225      -50.991116
 C         -54.911621     -147.555786      -50.366257
 C         -53.793270     -148.496811      -51.079323
 H         -54.532650     -151.508499      -49.431236
 H         -53.401081     -150.190063      -49.068798
 H         -56.068195     -147.553955      -48.504379
 H         -54.393532     -147.505295      -48.242870
 H         -55.104355     -150.165573      -51.469982
 H         -53.447491     -150.727280      -51.374676
 H         -54.519173     -146.493683      -50.454796
 H         -55.726322     -147.758835      -50.946976
 H         -53.766487     -148.227646      -52.085995
 H         -52.798973     -148.255280      -50.620613
