20
 generated by VMD
 C         -51.318394     -127.691528      -41.378559
 N         -51.842876     -128.655838      -41.826290
 H         -47.507271     -127.920372      -40.428757
 H         -51.221218     -126.831390      -40.739716
 C         -46.589664     -127.320702      -40.707527
 C         -45.196095     -127.770500      -40.057846
 C         -46.784702     -125.915016      -41.258434
 C         -44.059303     -127.092453      -40.785877
 C         -45.502502     -125.334274      -41.860859
 C         -44.220657     -125.553589      -41.067394
 H         -45.043015     -128.812775      -40.214008
 H         -45.161720     -127.522247      -38.968975
 H         -47.600353     -125.981468      -41.913277
 H         -46.984711     -125.225609      -40.404659
 H         -44.022804     -127.635880      -41.760456
 H         -43.141830     -127.247093      -40.213802
 H         -45.643467     -124.241714      -42.178535
 H         -45.479610     -125.887154      -42.802788
 H         -43.302158     -125.415207      -41.710468
 H         -43.996838     -124.933876      -40.194061
