20
 generated by VMD
 C         -65.328125     -177.297531      -56.309120
 N         -66.006020     -177.137238      -55.396362
 H         -64.301849     -174.953476      -59.168407
 H         -64.748917     -177.389877      -57.209248
 C         -64.376511     -173.962021      -59.541260
 C         -65.250793     -172.937256      -58.724819
 C         -63.594673     -173.500015      -60.718063
 C         -64.735390     -171.562943      -58.765583
 C         -63.097824     -172.067093      -60.488884
 C         -64.335274     -171.191971      -60.081993
 H         -65.294724     -173.233780      -57.714157
 H         -66.262428     -173.093933      -59.264263
 H         -62.629440     -174.133148      -60.944572
 H         -64.180496     -173.584412      -61.680717
 H         -64.003181     -171.474655      -57.907852
 H         -65.588409     -170.884033      -58.530598
 H         -62.711163     -171.686676      -61.453228
 H         -62.347927     -172.006897      -59.771675
 H         -63.913780     -170.148148      -59.946003
 H         -65.079025     -171.135406      -60.845161
