20
 generated by VMD
 C         -70.320435     -182.734177      -65.743225
 N         -71.014687     -183.624557      -65.606201
 H         -67.856232     -181.940903      -63.020485
 H         -69.577721     -181.949036      -65.897797
 C         -67.369431     -181.875610      -62.078747
 C         -67.604797     -183.045120      -61.153046
 C         -67.032486     -180.543472      -61.569767
 C         -66.625877     -182.955170      -59.915516
 C         -65.970840     -180.601974      -60.507629
 C         -66.370689     -181.570450      -59.456215
 H         -67.371872     -183.952850      -61.552807
 H         -68.623779     -182.885712      -60.885002
 H         -66.683449     -180.014267      -62.434082
 H         -68.031174     -180.010178      -61.241600
 H         -65.740387     -183.542908      -60.268017
 H         -67.131454     -183.530075      -58.935772
 H         -65.816040     -179.695816      -59.920395
 H         -65.037003     -180.825897      -61.062225
 H         -65.738411     -181.695847      -58.601105
 H         -67.348068     -181.316406      -58.898426
