20
 generated by VMD
 C         -51.232338     -129.709595      -45.254951
 N         -51.662567     -130.148865      -46.241772
 H         -48.483562     -130.302917      -43.615578
 H         -51.112453     -129.414474      -44.225983
 C         -48.074600     -130.451691      -42.700062
 C         -48.096134     -131.779449      -41.933628
 C         -47.604996     -129.333832      -41.774822
 C         -46.866920     -132.059265      -41.131996
 C         -46.355244     -129.662155      -40.928558
 C         -46.426094     -130.986069      -40.198952
 H         -48.380058     -132.504883      -42.666111
 H         -49.001217     -131.762299      -41.203979
 H         -47.390297     -128.337357      -42.384518
 H         -48.461063     -129.170303      -41.110451
 H         -46.042645     -132.341339      -41.775539
 H         -46.823021     -132.904388      -40.442635
 H         -46.315155     -128.829361      -40.243572
 H         -45.565018     -129.524918      -41.665989
 H         -45.465458     -131.111649      -39.724850
 H         -47.220444     -130.947617      -39.419159
