20
 generated by VMD
 C         -60.902832     -155.128281      -52.931255
 N         -60.888538     -154.200485      -52.183220
 H         -57.945473     -154.363022      -52.702133
 H         -60.875713     -155.928162      -53.639194
 C         -57.153648     -154.153900      -52.003067
 C         -57.350407     -154.132980      -50.553596
 C         -55.847691     -153.679321      -52.483040
 C         -56.273457     -154.573669      -49.673660
 C         -54.624374     -154.114777      -51.551331
 C         -55.014248     -153.764633      -50.154423
 H         -58.217834     -154.650238      -50.291096
 H         -57.659264     -153.125107      -50.454964
 H         -55.607853     -154.165497      -53.404270
 H         -55.816074     -152.566864      -52.556190
 H         -56.313240     -155.671524      -49.826870
 H         -56.437492     -154.295868      -48.602680
 H         -53.768612     -153.589676      -51.852692
 H         -54.383255     -155.221085      -51.657631
 H         -54.196842     -154.002747      -49.427021
 H         -55.120739     -152.648468      -50.146763
