20
 generated by VMD
 C         -57.630241     -165.603073      -56.555096
 N         -57.837700     -166.733521      -56.190659
 H         -60.490715     -165.082596      -54.330894
 H         -57.336102     -164.668976      -56.983231
 C         -61.499718     -165.189682      -54.779591
 C         -61.824806     -166.606796      -55.288448
 C         -62.308197     -164.122223      -55.403881
 C         -63.363914     -166.939407      -55.582829
 C         -63.832466     -164.434647      -55.807369
 C         -63.922672     -165.822861      -56.384903
 H         -61.482628     -167.490616      -54.613186
 H         -61.270729     -166.915085      -56.134243
 H         -62.270504     -163.282089      -54.727859
 H         -61.864899     -163.745239      -56.415546
 H         -63.939384     -167.002426      -54.539742
 H         -63.462738     -167.910706      -56.142693
 H         -64.170776     -163.649628      -56.440899
 H         -64.356392     -164.467453      -54.909046
 H         -64.961929     -165.938110      -56.747952
 H         -63.412918     -165.703171      -57.340397
