20
 generated by VMD
 C         -15.657406      -47.640709       -6.435556
 N         -15.727066      -46.591721       -6.092918
 H         -16.435524      -47.572285      -10.118407
 H         -15.338752      -47.137104      -11.320309
 C         -16.333376      -46.957016      -10.994651
 C         -16.417784      -45.442532      -10.655918
 C         -17.218912      -47.439266      -12.132753
 C         -16.153294      -44.726044      -11.966159
 C         -16.924583      -46.727135      -13.405359
 C         -16.998260      -45.221794      -13.145903
 H         -15.584376      -45.185566       -9.947870
 H         -17.317873      -45.114380      -10.099198
 H         -17.016741      -48.513405      -12.305230
 H         -18.262602      -47.352913      -11.843615
 H         -15.103162      -44.880100      -12.251250
 H         -16.250170      -43.656433      -11.808169
 H         -17.690159      -47.096344      -14.144980
 H         -15.877383      -46.910027      -13.722283
 H         -16.525829      -44.645054      -14.000546
 H         -18.038847      -44.978962      -12.901035
