20
 generated by VMD
 C         -40.635174     -104.159630      -36.749214
 N         -39.866837     -104.995850      -36.497360
 H         -40.412418     -106.878326      -34.407650
 H         -41.281368     -103.274643      -36.676022
 C         -39.619556     -107.382301      -33.860176
 C         -38.481575     -106.618469      -33.350002
 C         -40.042961     -108.759285      -33.475784
 C         -38.395184     -106.887802      -31.811686
 C         -39.695393     -109.110985      -31.983124
 C         -38.502800     -108.448326      -31.545557
 H         -38.720558     -105.507446      -33.621883
 H         -37.466156     -106.831551      -33.708900
 H         -41.131622     -108.806984      -33.548561
 H         -39.655544     -109.609879      -33.974098
 H         -39.193100     -106.263588      -31.312925
 H         -37.404507     -106.561890      -31.402990
 H         -39.485519     -110.186844      -31.853838
 H         -40.537971     -108.920479      -31.256342
 H         -38.410725     -108.786797      -30.391068
 H         -37.690643     -108.919434      -32.029068
