20
 generated by VMD
 C         -10.667856      -40.168343       -7.027369
 N         -11.413151      -40.249130       -6.224396
 H         -13.709784      -40.530518       -8.793185
 H         -15.186112      -39.914684       -9.626110
 C         -14.665404      -40.884045       -9.269552
 C         -15.425205      -41.567890       -8.089399
 C         -14.572995      -41.791275      -10.492582
 C         -16.832092      -42.159477       -8.607664
 C         -16.026316      -42.145119      -10.989474
 C         -16.749207      -42.918022       -9.933000
 H         -15.705832      -40.892780       -7.321436
 H         -14.830892      -42.353405       -7.624710
 H         -14.065255      -41.190037      -11.201923
 H         -14.077673      -42.743671      -10.237530
 H         -17.448977      -41.249737       -8.789633
 H         -17.256403      -42.791237       -7.843350
 H         -15.910368      -42.687794      -11.962537
 H         -16.507236      -41.208900      -11.237288
 H         -17.777447      -43.072815      -10.254531
 H         -16.285437      -43.913052       -9.749354
