20
 generated by VMD
 C         -52.547451     -147.078766      -45.348225
 N         -53.513744     -147.371002      -44.785080
 H         -54.643600     -147.163559      -47.839066
 H         -51.635529     -146.635483      -45.758789
 C         -54.492779     -146.326675      -48.481300
 C         -53.278908     -146.249512      -49.420769
 C         -55.342510     -145.068802      -48.085278
 C         -53.404285     -145.011185      -50.289963
 C         -55.247784     -143.887482      -49.104530
 C         -53.796387     -143.698929      -49.621464
 H         -53.298389     -147.179428      -49.949909
 H         -52.385422     -146.303177      -48.804607
 H         -56.349449     -145.284317      -47.875221
 H         -55.047905     -144.861618      -47.048187
 H         -54.150303     -145.329132      -50.896351
 H         -52.673336     -144.827011      -50.998062
 H         -55.565720     -142.956772      -48.588737
 H         -56.034664     -144.040665      -49.929737
 H         -53.479588     -142.867432      -50.223309
 H         -53.175056     -143.573959      -48.704422
