20
 generated by VMD
 C         -20.499193      -61.529263      -17.237410
 N         -19.426846      -61.179901      -17.096260
 H         -21.625391      -64.829948      -16.808113
 H         -21.378801      -61.983658      -17.221205
 C         -22.656569      -65.018517      -16.986584
 C         -23.112963      -64.304489      -18.232538
 C         -23.731386      -65.299843      -16.028364
 C         -24.480034      -64.648552      -18.870457
 C         -25.195194      -65.412331      -16.578068
 C         -25.509693      -64.457977      -17.789621
 H         -22.344528      -64.462677      -18.964767
 H         -23.201275      -63.334270      -17.952110
 H         -23.606337      -66.065254      -15.248328
 H         -23.808161      -64.464325      -15.433832
 H         -24.526337      -65.625862      -19.307194
 H         -24.784864      -64.054939      -19.761574
 H         -25.922363      -65.304192      -15.757475
 H         -25.312992      -66.432053      -16.973255
 H         -26.554152      -64.783722      -18.117460
 H         -25.708458      -63.453323      -17.492430
