20
 generated by VMD
 C         -49.126762     -127.203888      -38.978031
 N         -50.079136     -127.067993      -38.320698
 H         -46.758156     -125.022942      -39.573055
 H         -48.174721     -127.181633      -39.501255
 C         -46.093037     -124.650665      -40.275810
 C         -44.699348     -125.279427      -40.074951
 C         -46.224239     -123.174675      -40.599686
 C         -43.720810     -124.666672      -41.102173
 C         -45.198139     -122.780785      -41.605110
 C         -43.751316     -123.082031      -41.222965
 H         -44.792431     -126.325218      -40.155003
 H         -44.305077     -125.167213      -39.110634
 H         -47.242382     -123.095566      -41.071972
 H         -46.106991     -122.376854      -39.725056
 H         -44.013969     -125.051254      -42.078297
 H         -42.687462     -124.978828      -40.875710
 H         -45.040318     -121.596649      -41.630291
 H         -45.549366     -123.153427      -42.652935
 H         -43.071110     -122.896210      -42.120014
 H         -43.409191     -122.627350      -40.303265
