20
 generated by VMD
 C          -5.754088      -21.303112        1.773804
 N          -6.399724      -22.115488        1.374317
 H          -5.143537      -18.954927       -0.986410
 H          -6.131331      -19.947262        0.113605
 C          -5.926787      -19.698410       -0.937533
 C          -5.579322      -20.918837       -1.766717
 C          -7.158596      -18.972334       -1.389456
 C          -6.762716      -21.790445       -2.146426
 C          -8.354941      -19.884293       -1.772074
 C          -7.899976      -20.999868       -2.759774
 H          -4.879350      -21.484486       -1.234556
 H          -5.118197      -20.586033       -2.712384
 H          -7.458190      -18.231249       -0.678929
 H          -6.990781      -18.216206       -2.182652
 H          -7.175674      -22.280460       -1.284323
 H          -6.465858      -22.646881       -2.754426
 H          -9.211000      -19.274054       -2.151657
 H          -8.789846      -20.347368       -0.881808
 H          -8.713138      -21.686373       -2.917323
 H          -7.672541      -20.596699       -3.732169
