20
 generated by VMD
 C         -19.552578      -61.617725      -16.214413
 N         -20.101002      -61.011597      -17.002697
 H         -21.722061      -63.047615      -17.738436
 H         -18.836813      -62.084930      -15.412744
 C         -22.679632      -63.464828      -17.610008
 C         -23.643883      -63.548477      -18.786678
 C         -23.140287      -63.650524      -16.229517
 C         -24.735003      -64.635300      -18.403721
 C         -24.096582      -64.884697      -16.047318
 C         -25.269144      -64.938057      -17.037842
 H         -23.078022      -63.747425      -19.772722
 H         -24.098005      -62.537235      -18.888950
 H         -22.328453      -63.836689      -15.379744
 H         -23.546053      -62.676098      -15.937534
 H         -24.284317      -65.534683      -18.839386
 H         -25.610735      -64.331673      -19.087456
 H         -24.425364      -64.926277      -14.991246
 H         -23.540327      -65.809494      -16.201876
 H         -25.735229      -65.987976      -16.989786
 H         -25.922405      -64.121605      -16.803173
