20
 generated by VMD
 C         -60.115799     -156.553024      -55.538158
 N         -60.850468     -155.928360      -56.087444
 H         -59.830437     -157.595917      -52.843407
 H         -59.442131     -157.119781      -54.890755
 C         -58.738373     -157.966476      -52.864109
 C         -57.656094     -156.959290      -52.592529
 C         -58.450077     -159.364441      -52.368145
 C         -57.337101     -156.771042      -51.195011
 C         -58.112663     -159.304733      -50.889866
 C         -57.095276     -158.110306      -50.560493
 H         -57.977772     -155.956589      -53.057293
 H         -56.677700     -157.362244      -53.145252
 H         -59.256123     -160.079086      -52.617977
 H         -57.436028     -159.740906      -52.796597
 H         -58.084972     -156.186020      -50.701035
 H         -56.417465     -156.176529      -50.963234
 H         -57.629902     -160.234299      -50.426476
 H         -59.103134     -159.112640      -50.335033
 H         -56.971378     -157.999847      -49.469387
 H         -56.021774     -158.461182      -50.772324
