20
 generated by VMD
 C         -52.627037     -146.856384      -45.373825
 N         -52.830269     -147.363968      -44.371284
 H         -55.128212     -146.958664      -48.467281
 H         -52.490532     -146.400787      -46.339130
 C         -54.527443     -146.051178      -48.382473
 C         -53.256195     -145.976852      -49.277908
 C         -55.270271     -144.767441      -47.958267
 C         -53.297405     -144.858902      -50.274372
 C         -55.271584     -143.741379      -49.075592
 C         -53.889343     -143.493759      -49.698299
 H         -52.945663     -146.932312      -49.657219
 H         -52.500526     -145.746078      -48.504646
 H         -56.256199     -145.125137      -47.529770
 H         -54.787865     -144.264130      -47.117989
 H         -53.949261     -145.112305      -51.139637
 H         -52.456333     -144.885193      -50.917103
 H         -55.754871     -142.779404      -48.831856
 H         -55.896965     -144.174957      -49.858292
 H         -54.082962     -142.842865      -50.562489
 H         -53.183632     -143.097046      -48.995911
