20
 generated by VMD
 C         -10.238214      -33.103699       -9.407365
 N         -11.104896      -32.514370       -8.997879
 H         -11.891822      -36.422836       -8.003647
 H         -12.304075      -35.981506       -6.432281
 C         -12.471061      -36.766331       -7.130454
 C         -11.930738      -38.015499       -6.478727
 C         -13.954481      -36.961571       -7.441093
 C         -12.720584      -38.367901       -5.185089
 C         -14.723703      -37.204765       -6.133136
 C         -14.235419      -38.368351       -5.266162
 H         -10.870775      -37.917976       -6.142201
 H         -11.882530      -38.903435       -7.136164
 H         -14.328773      -36.014256       -7.959650
 H         -14.062259      -37.694183       -8.214975
 H         -12.312523      -37.516125       -4.540249
 H         -12.339741      -39.259892       -4.673883
 H         -15.805212      -37.430027       -6.412184
 H         -14.683205      -36.351948       -5.501576
 H         -14.806238      -38.359165       -4.345902
 H         -14.468276      -39.254208       -5.834760
