20
 generated by VMD
 C         -68.111412     -188.365067      -66.655891
 N         -68.805420     -188.309235      -67.597481
 H         -68.298668     -187.114792      -63.778370
 H         -67.507057     -188.204193      -65.709290
 C         -69.243279     -187.550735      -63.523624
 C         -69.318588     -188.912598      -62.884136
 C         -70.482498     -186.633545      -63.587933
 C         -70.720474     -189.546463      -63.304127
 C         -71.772652     -187.357315      -63.718876
 C         -71.833046     -188.618286      -62.974590
 H         -69.392921     -189.015198      -61.744835
 H         -68.379875     -189.515381      -63.205257
 H         -70.512650     -186.051331      -62.639889
 H         -70.374687     -185.932648      -64.346581
 H         -70.888306     -190.451019      -62.763855
 H         -70.738678     -189.804703      -64.386887
 H         -72.041039     -187.616394      -64.791016
 H         -72.567650     -186.630493      -63.511276
 H         -71.802734     -188.461792      -61.850922
 H         -72.870399     -189.280243      -63.027817
