20
 generated by VMD
 C         -14.639136      -45.458454       -6.360721
 N         -14.532630      -46.261593       -7.136737
 H         -15.149422      -44.112095       -9.082538
 H         -14.521287      -44.385452      -10.709605
 C         -15.412742      -44.374523      -10.109234
 C         -16.446754      -43.302326      -10.704696
 C         -15.970379      -45.777729      -10.249814
 C         -16.846661      -43.615253      -12.146496
 C         -16.216177      -46.053158      -11.746273
 C         -17.212334      -45.082836      -12.369717
 H         -15.971038      -42.281189      -10.742909
 H         -17.343056      -43.304726      -10.061431
 H         -15.200581      -46.416515       -9.799835
 H         -16.930422      -45.981052       -9.729086
 H         -15.958043      -43.459888      -12.785523
 H         -17.688900      -42.990208      -12.472912
 H         -16.572468      -47.134918      -11.847225
 H         -15.257854      -46.025169      -12.268441
 H         -17.282938      -45.349400      -13.417170
 H         -18.223997      -45.159344      -12.055016
