20
 generated by VMD
 C          -3.257567      -17.489851        2.453308
 N          -3.216343      -18.202011        1.594946
 H          -5.374720      -19.855612        0.921509
 H          -5.528810      -20.520529       -0.729900
 C          -5.879709      -19.677368       -0.061945
 C          -5.455464      -18.336933       -0.706921
 C          -7.423018      -19.793785        0.122575
 C          -6.205653      -18.095057       -1.998787
 C          -8.295674      -19.387016       -1.120699
 C          -7.709597      -18.128925       -1.751782
 H          -4.363532      -18.208719       -0.919240
 H          -5.745388      -17.614363        0.017021
 H          -7.665049      -20.830858        0.544472
 H          -7.796778      -19.062883        0.912357
 H          -5.964882      -18.869959       -2.804074
 H          -5.893166      -17.134935       -2.447970
 H          -9.366098      -19.229460       -0.840741
 H          -8.272546      -20.189560       -1.842470
 H          -8.125723      -18.003620       -2.746287
 H          -7.945374      -17.239042       -1.126857
