20
 generated by VMD
 C         -66.999718     -191.414642      -66.225609
 N         -67.464851     -190.822983      -67.086403
 H         -70.363983     -190.240875      -66.511879
 H         -66.756645     -192.066788      -65.437225
 C         -71.091988     -190.174484      -65.703377
 C         -72.098213     -191.303848      -65.551643
 C         -70.886490     -189.168060      -64.543304
 C         -73.333694     -190.763962      -64.817474
 C         -71.980110     -188.982407      -63.494530
 C         -72.962936     -190.198364      -63.413254
 H         -71.718605     -192.075455      -64.975151
 H         -72.412239     -191.707916      -66.524521
 H         -70.001732     -189.462189      -64.025299
 H         -70.856239     -188.187057      -65.088768
 H         -74.002525     -191.611633      -64.676620
 H         -73.793983     -189.929855      -65.429855
 H         -72.610329     -188.088043      -63.625343
 H         -71.605286     -188.888214      -62.532581
 H         -72.535194     -190.983765      -62.916153
 H         -73.879143     -189.845001      -62.755199
