20
 generated by VMD
 C         -61.600510     -156.030090      -54.573292
 N         -60.947311     -155.254684      -53.936089
 H         -58.771744     -154.929947      -52.051968
 H         -62.142155     -156.662796      -55.262001
 C         -57.829586     -155.141434      -51.569157
 C         -57.531235     -154.500458      -50.255486
 C         -56.747437     -155.573959      -52.476162
 C         -56.245090     -155.012314      -49.676029
 C         -55.586025     -156.160156      -51.787296
 C         -55.097378     -155.272537      -50.748631
 H         -58.355465     -154.627014      -49.519955
 H         -57.351418     -153.336960      -50.480152
 H         -57.050102     -156.341248      -53.093884
 H         -56.301983     -154.764343      -53.093849
 H         -56.486034     -156.050354      -49.312519
 H         -55.891315     -154.365417      -48.939632
 H         -54.881306     -156.271164      -52.566124
 H         -55.715137     -157.194626      -51.310806
 H         -54.255112     -155.715118      -50.252174
 H         -54.652447     -154.423096      -51.279476
