20
 generated by VMD
 C         -38.743439     -108.367630      -36.821918
 N         -37.751560     -108.838974      -37.176136
 H         -41.734665     -109.528793      -36.161259
 H         -39.538307     -107.812141      -36.310524
 C         -41.485233     -110.095055      -35.211155
 C         -40.761219     -111.344734      -35.496609
 C         -42.422203     -109.852135      -34.134171
 C         -40.376045     -112.026848      -34.247425
 C         -42.122086     -110.707085      -32.948898
 C         -41.606125     -112.166794      -33.313820
 H         -39.850014     -110.990685      -35.975800
 H         -41.258976     -111.913795      -36.240166
 H         -42.308388     -108.779968      -33.946030
 H         -43.455757     -110.121002      -34.578651
 H         -39.645309     -111.520065      -33.585655
 H         -39.896366     -112.877518      -34.551571
 H         -42.898804     -110.851219      -32.164478
 H         -41.180279     -110.161392      -32.453266
 H         -41.342644     -112.581879      -32.416828
 H         -42.474121     -112.662186      -33.753269
