20
 generated by VMD
 C         -32.174828      -94.401962      -25.362329
 N         -33.296410      -94.756172      -25.333492
 H         -33.833191      -94.854546      -28.320408
 H         -31.187792      -93.922195      -25.532675
 C         -34.298717      -94.125000      -28.894892
 C         -35.657413      -93.650391      -28.597475
 C         -33.483456      -93.478264      -29.988997
 C         -35.754574      -92.048607      -28.744070
 C         -33.541611      -91.949738      -29.999159
 C         -35.055733      -91.565514      -30.002026
 H         -35.918564      -94.075981      -27.632025
 H         -36.482643      -93.960312      -29.329895
 H         -32.469620      -93.838211      -29.890949
 H         -33.846138      -93.970467      -30.913395
 H         -35.319874      -91.444855      -27.931154
 H         -36.832550      -91.880775      -28.819654
 H         -33.243675      -91.547752      -30.957045
 H         -32.815460      -91.396057      -29.339350
 H         -35.290432      -90.465981      -29.987679
 H         -35.517097      -92.150818      -30.959074
