20
 generated by VMD
 C         -41.223679     -102.400742      -35.179333
 N         -41.531956     -103.199028      -35.971325
 H         -39.484661     -104.802841      -33.444954
 H         -40.630421     -101.772980      -34.605698
 C         -38.654739     -104.864700      -32.654232
 C         -37.409943     -104.346024      -32.938900
 C         -38.864056     -106.175529      -31.858820
 C         -36.456223     -104.456833      -31.756233
 C         -37.853889     -106.344193      -30.670725
 C         -36.365471     -105.834442      -31.033804
 H         -37.408585     -103.247986      -33.191330
 H         -37.081650     -104.968117      -33.832077
 H         -39.921921     -106.217880      -31.349831
 H         -38.815605     -106.973839      -32.585255
 H         -36.860809     -103.733398      -30.994535
 H         -35.491131     -104.027794      -32.135353
 H         -37.644360     -107.428299      -30.424261
 H         -38.241940     -105.844345      -29.713264
 H         -35.653069     -105.874008      -30.253332
 H         -36.044231     -106.491249      -31.899794
