20
 generated by VMD
 C         -33.188282      -96.737854      -25.332911
 N         -32.692963      -96.537125      -24.322021
 H         -34.526978      -93.728378      -27.483206
 H         -33.551144      -97.140762      -26.317244
 C         -34.687969      -93.381035      -28.577982
 C         -36.099445      -93.466316      -29.065222
 C         -33.466732      -93.160912      -29.306948
 C         -36.300976      -92.772255      -30.429802
 C         -33.738617      -92.291458      -30.506413
 C         -35.052036      -92.798523      -31.308212
 H         -36.837719      -93.129639      -28.233406
 H         -36.315639      -94.534325      -29.210125
 H         -32.831879      -92.594994      -28.553116
 H         -32.867035      -94.065918      -29.531027
 H         -36.528107      -91.650345      -30.208960
 H         -37.178783      -93.275597      -30.767776
 H         -32.852684      -92.399818      -31.221218
 H         -33.849033      -91.258385      -30.239521
 H         -35.301788      -92.073204      -32.076363
 H         -34.879021      -93.881752      -31.761141
