20
 generated by VMD
 C         -50.330521     -145.150543      -45.149006
 N         -50.133091     -145.036896      -44.042389
 H         -53.202164     -143.452332      -45.938515
 H         -50.715340     -145.260651      -46.127987
 C         -53.493301     -143.047638      -46.897377
 C         -52.579849     -143.019073      -48.092205
 C         -54.673798     -142.189423      -46.856892
 C         -53.304031     -143.206390      -49.361710
 C         -55.455616     -142.336182      -48.211243
 C         -54.497837     -142.208130      -49.476437
 H         -51.840813     -143.763046      -47.941334
 H         -51.941517     -142.161026      -48.082184
 H         -55.287899     -142.663483      -46.106796
 H         -54.329948     -141.131973      -46.885715
 H         -53.594498     -144.200195      -49.359478
 H         -52.621674     -143.028473      -50.160423
 H         -56.311111     -141.682068      -48.078922
 H         -56.060051     -143.311783      -48.276508
 H         -55.105122     -142.384277      -50.303207
 H         -54.206936     -141.236557      -49.727371
