20
 generated by VMD
 C         -69.696884     -183.200485      -65.264687
 N         -70.073975     -182.402969      -66.001366
 H         -67.937218     -184.829971      -62.877613
 H         -69.369514     -183.898376      -64.568085
 C         -67.749840     -183.992294      -62.190609
 C         -67.969513     -184.343903      -60.723717
 C         -67.756462     -182.531982      -62.658752
 C         -67.075935     -183.456467      -59.803333
 C         -67.105782     -181.636627      -61.634766
 C         -67.357430     -181.983612      -60.213135
 H         -67.591164     -185.390747      -60.759262
 H         -69.031273     -184.305496      -60.504135
 H         -67.221085     -182.581573      -63.549816
 H         -68.709900     -181.968018      -62.790546
 H         -66.006920     -183.627563      -60.114323
 H         -67.244919     -183.755966      -58.786068
 H         -67.324577     -180.607605      -61.902405
 H         -66.060982     -181.737244      -61.655212
 H         -66.690117     -181.423203      -59.566006
 H         -68.417336     -181.760590      -59.814789
