20
 generated by VMD
 C         -79.572525     -205.378082      -71.763817
 N         -79.754929     -206.493851      -71.621574
 H         -77.004883     -204.201645      -71.808044
 H         -79.343628     -204.310410      -71.859985
 C         -76.407982     -204.179291      -70.899757
 C         -75.322456     -203.209503      -71.008064
 C         -76.412598     -205.565231      -70.273033
 C         -74.277107     -203.417130      -69.938499
 C         -75.350830     -205.536667      -69.144806
 C         -74.081726     -204.906921      -69.774757
 H         -75.615891     -202.143082      -70.945595
 H         -74.819229     -203.330475      -71.993790
 H         -77.450516     -205.843704      -70.078209
 H         -75.971985     -206.300522      -70.953308
 H         -74.546326     -203.007996      -68.922157
 H         -73.201813     -203.030823      -70.240341
 H         -75.062332     -206.509109      -68.838493
 H         -75.812126     -205.030075      -68.302620
 H         -73.170944     -204.984085      -69.117981
 H         -73.833099     -205.361664      -70.768219
