20
 generated by VMD
 C         -40.356251     -118.117737      -34.773926
 N         -39.432861     -117.511497      -35.046947
 H         -42.407887     -116.376625      -36.510719
 H         -41.076012     -118.906006      -34.455425
 C         -43.161201     -116.597412      -37.279903
 C         -42.832016     -116.956284      -38.727962
 C         -44.577366     -116.326950      -36.890526
 C         -44.024990     -117.702682      -39.385891
 C         -45.673695     -116.974533      -37.822304
 C         -45.340813     -116.952072      -39.352852
 H         -42.005413     -117.639290      -38.667084
 H         -42.565338     -116.061470      -39.242500
 H         -44.938984     -116.621811      -35.848343
 H         -44.878265     -115.246849      -36.837437
 H         -44.225513     -118.733139      -38.935772
 H         -43.704597     -117.827316      -40.512424
 H         -46.633324     -116.537064      -37.677826
 H         -45.847958     -117.984970      -37.412987
 H         -46.105385     -117.516365      -39.896725
 H         -45.097950     -115.871056      -39.735188
