20
 generated by VMD
 C         -19.091358      -63.043282      -17.005400
 N         -20.214863      -62.830223      -16.933125
 H         -22.666698      -64.179314      -17.093012
 H         -18.021141      -63.451916      -16.981792
 C         -23.695042      -64.159737      -17.254103
 C         -24.154861      -64.109604      -18.699478
 C         -24.445089      -65.124832      -16.393349
 C         -24.595882      -65.444481      -19.235376
 C         -25.037395      -66.465530      -17.017769
 C         -25.641525      -66.111816      -18.359787
 H         -23.291761      -63.658627      -19.289635
 H         -25.069427      -63.538475      -18.529232
 H         -23.892410      -65.493355      -15.474053
 H         -25.166668      -64.538811      -15.857574
 H         -23.657949      -66.020691      -19.251982
 H         -24.976597      -65.258728      -20.211737
 H         -25.718086      -66.930237      -16.253714
 H         -24.252905      -67.195290      -17.266424
 H         -25.762529      -67.111763      -18.833696
 H         -26.619257      -65.690308      -18.379147
