20
 generated by VMD
 C         -18.205387      -50.120728       -8.915021
 N         -19.309072      -50.025093       -9.077135
 H         -16.360504      -47.147163      -10.084910
 H         -17.293224      -48.640205      -10.342985
 C         -16.712942      -47.832066      -10.858118
 C         -15.547997      -48.247574      -11.670648
 C         -17.636026      -47.015579      -11.738503
 C         -16.088678      -49.277920      -12.683821
 C         -18.010124      -47.650379      -13.073698
 C         -16.844568      -48.462990      -13.756578
 H         -14.763652      -48.701122      -11.099186
 H         -15.122692      -47.353119      -12.165401
 H         -18.592009      -46.859989      -11.211870
 H         -17.205648      -46.034012      -11.967642
 H         -16.748034      -49.996853      -12.168981
 H         -15.212609      -49.773952      -13.171662
 H         -18.343792      -46.869396      -13.722083
 H         -18.890898      -48.337410      -12.994366
 H         -17.136497      -49.141945      -14.561485
 H         -16.213129      -47.736450      -14.273801
