20
 generated by VMD
 C         -19.905403      -59.066612      -17.274429
 N         -19.315662      -58.887218      -18.289833
 H         -22.848961      -59.717514      -16.105257
 H         -20.684774      -59.306664      -16.605080
 C         -22.748064      -60.780624      -16.167360
 C         -23.479330      -61.608002      -17.138874
 C         -22.668613      -61.302551      -14.754940
 C         -23.053272      -63.074905      -17.175716
 C         -22.479700      -62.848587      -14.697121
 C         -23.294394      -63.609379      -15.706335
 H         -23.376009      -61.066948      -18.142857
 H         -24.599009      -61.631336      -16.889345
 H         -22.007730      -60.748894      -14.138137
 H         -23.616646      -61.050407      -14.238598
 H         -22.000053      -63.147533      -17.413486
 H         -23.667215      -63.585300      -17.845106
 H         -22.554844      -63.251537      -13.676085
 H         -21.392633      -63.025539      -14.926561
 H         -22.976261      -64.627449      -15.749395
 H         -24.403128      -63.498627      -15.545050
