20
 generated by VMD
 C         -79.428535     -206.790802      -74.645966
 N         -80.188942     -207.658752      -74.360046
 H         -77.139061     -207.465775      -73.138847
 H         -78.908302     -205.923660      -74.929497
 C         -76.811775     -207.859375      -72.248512
 C         -75.618645     -207.378113      -71.482071
 C         -77.729782     -208.854248      -71.643242
 C         -75.697845     -207.546173      -69.921379
 C         -78.012726     -208.508087      -70.164101
 C         -76.742546     -208.505356      -69.384613
 H         -75.718254     -206.254181      -71.542931
 H         -74.693024     -207.518173      -72.058311
 H         -78.685059     -208.893845      -72.094849
 H         -77.209442     -209.815094      -71.806236
 H         -75.833626     -206.521576      -69.536415
 H         -74.677071     -207.866516      -69.747742
 H         -78.551170     -209.326004      -69.737549
 H         -78.544106     -207.600418      -69.826538
 H         -77.064812     -208.208054      -68.313286
 H         -76.395027     -209.517456      -69.537865
