20
 generated by VMD
 C         -12.551913      -30.255655       -8.069613
 N         -13.252266      -30.394150       -7.215662
 H         -11.206892      -30.269396       -5.116052
 H         -10.624199      -30.802731       -3.659202
 C         -10.835329      -31.230904       -4.619928
 C          -9.623426      -31.638231       -5.417884
 C         -11.847182      -32.307491       -4.542079
 C          -9.061926      -32.889450       -4.692898
 C         -11.329504      -33.509193       -3.768316
 C         -10.095989      -34.065754       -4.446984
 H          -8.918443      -30.842360       -5.421770
 H         -10.021244      -31.832682       -6.483016
 H         -12.744387      -31.920105       -4.077449
 H         -12.159013      -32.619877       -5.534445
 H          -8.706946      -32.620453       -3.716038
 H          -8.248410      -33.297421       -5.246156
 H         -12.062437      -34.396862       -3.744717
 H         -11.115646      -33.199459       -2.770754
 H          -9.710736      -34.942772       -3.916557
 H         -10.362164      -34.502987       -5.359951
