20
 generated by VMD
 C         -70.029747     -184.096390      -65.967087
 N         -69.025810     -183.864594      -66.441574
 H         -69.401314     -184.301590      -63.347187
 H         -71.028252     -184.242264      -65.473251
 C         -68.817497     -183.880844      -62.584530
 C         -69.063622     -184.698059      -61.288452
 C         -67.980827     -182.669266      -62.499928
 C         -67.813728     -184.722717      -60.461624
 C         -66.919975     -182.517746      -61.428165
 C         -67.423637     -183.277496      -60.198696
 H         -69.380577     -185.697281      -61.475922
 H         -69.904953     -184.088043      -60.877438
 H         -67.368263     -182.636688      -63.448639
 H         -68.720177     -181.930984      -62.465672
 H         -67.169006     -185.345993      -61.047897
 H         -67.999710     -185.265030      -59.524052
 H         -66.771515     -181.504028      -61.020531
 H         -65.947678     -182.965973      -61.852570
 H         -66.581383     -183.242462      -59.433517
 H         -68.127373     -182.784897      -59.660610
