20
 generated by VMD
 C         -40.935337     -104.258347      -36.435131
 N         -41.818825     -105.006737      -36.341053
 H         -38.497265     -104.647285      -33.773155
 H         -40.234791     -103.470879      -36.355064
 C         -38.445839     -105.470543      -33.126316
 C         -37.154217     -105.637253      -32.336044
 C         -39.349918     -106.657875      -33.294983
 C         -37.435074     -106.683289      -31.213770
 C         -39.442921     -107.596313      -32.190258
 C         -38.126091     -108.082397      -31.601786
 H         -36.997196     -104.646004      -31.870350
 H         -36.367966     -106.016235      -32.908775
 H         -40.333431     -106.183342      -33.626720
 H         -39.004910     -107.140259      -34.178814
 H         -38.064663     -106.447693      -30.331289
 H         -36.383778     -106.937218      -30.904221
 H         -40.132965     -108.517349      -32.486214
 H         -40.105362     -107.141487      -31.426655
 H         -38.228897     -108.857742      -30.888142
 H         -37.377567     -108.451897      -32.390175
