20
 generated by VMD
 C         -25.817152      -71.779335      -17.078009
 N         -26.648430      -72.447899      -16.578213
 H         -24.108414      -68.997955      -18.871807
 H         -25.067816      -71.248177      -17.497770
 C         -24.665594      -69.412712      -19.664022
 C         -24.132729      -70.655266      -20.312037
 C         -25.784492      -68.657768      -20.352741
 C         -25.163910      -71.555603      -21.211681
 C         -26.774206      -69.612823      -21.222326
 C         -25.962017      -70.709053      -22.155148
 H         -23.734024      -71.389580      -19.601521
 H         -23.449720      -70.501343      -21.101931
 H         -26.406696      -68.235413      -19.592112
 H         -25.330996      -67.846848      -21.006493
 H         -25.750914      -72.144279      -20.441088
 H         -24.536566      -72.298401      -21.639984
 H         -27.594278      -69.040955      -21.793375
 H         -27.289160      -70.332108      -20.515282
 H         -26.697952      -71.405571      -22.588406
 H         -25.317488      -70.279427      -22.909870
