20
 generated by VMD
 C         -31.037083      -74.862480      -22.335318
 N         -31.227924      -75.785301      -21.713625
 H         -28.576756      -77.157349      -20.952675
 H         -31.109550      -73.798134      -22.517012
 C         -27.721540      -76.672646      -21.363949
 C         -26.756775      -77.508202      -22.049368
 C         -27.192228      -75.400932      -20.648844
 C         -25.776649      -76.670120      -22.903111
 C         -26.271002      -74.611992      -21.500610
 C         -25.174839      -75.499741      -22.217157
 H         -27.161671      -78.381149      -22.682758
 H         -26.001593      -77.930618      -21.322628
 H         -28.123959      -74.772011      -20.247816
 H         -26.621458      -75.639389      -19.731897
 H         -26.248341      -76.259117      -23.825272
 H         -25.030249      -77.369789      -23.288477
 H         -25.687305      -73.830055      -20.978897
 H         -26.844292      -74.072960      -22.318594
 H         -24.690729      -74.811165      -22.957809
 H         -24.503174      -75.909401      -21.370577
