20
 generated by VMD
 C         -47.623291     -136.685364      -45.916023
 N         -47.057018     -136.306366      -46.906677
 H         -50.954178     -135.675034      -45.619320
 H         -48.423832     -137.062958      -45.288975
 C         -51.233200     -136.653564      -45.132618
 C         -51.736904     -137.683044      -46.120335
 C         -51.831478     -136.540955      -43.851444
 C         -52.047779     -139.001312      -45.459053
 C         -52.335884     -137.927338      -43.258934
 C         -52.968086     -138.853928      -44.274910
 H         -50.889565     -137.780930      -46.904873
 H         -52.559990     -137.417297      -46.702259
 H         -51.298210     -136.013123      -43.050716
 H         -52.767860     -136.007904      -43.998737
 H         -51.056431     -139.390091      -45.252621
 H         -52.674942     -139.600967      -46.096622
 H         -53.054775     -137.591385      -42.421211
 H         -51.440582     -138.383377      -42.950859
 H         -53.081955     -139.770676      -43.854370
 H         -53.920753     -138.403015      -44.640556
