20
 generated by VMD
 C         -79.553329     -206.477875      -75.092468
 N         -79.812302     -206.302765      -73.987198
 H         -78.656418     -206.690048      -71.352936
 H         -79.361786     -206.526978      -76.111191
 C         -77.663620     -206.738510      -70.750908
 C         -76.589104     -205.849731      -71.218643
 C         -77.366150     -207.972900      -70.037231
 C         -75.280937     -205.918701      -70.407768
 C         -76.028816     -207.885437      -69.145767
 C         -74.809021     -207.215057      -69.807816
 H         -76.994064     -204.839905      -71.537071
 H         -76.058701     -206.181381      -72.132095
 H         -78.181099     -208.410950      -69.451805
 H         -77.114815     -208.771011      -70.766068
 H         -75.286926     -205.228394      -69.586769
 H         -74.486145     -205.619553      -71.057770
 H         -75.708412     -208.856506      -68.878448
 H         -76.324814     -207.252335      -68.263893
 H         -73.965805     -207.160141      -69.015205
 H         -74.534073     -207.801941      -70.675941
