20
 generated by VMD
 C         -13.157097      -28.776667       -6.309007
 N         -13.136640      -28.775555       -7.423576
 H         -12.059404      -30.655954       -4.949251
 H         -10.657437      -29.733480       -4.667925
 C         -11.007621      -30.775898       -4.636400
 C         -10.112658      -31.586021       -5.617211
 C         -10.910778      -31.359852       -3.267504
 C          -8.657516      -31.709826       -5.172406
 C          -9.513931      -31.335400       -2.756037
 C          -8.573506      -32.100819       -3.687771
 H         -10.123306      -31.171577       -6.710918
 H         -10.662844      -32.498833       -5.622926
 H         -11.563483      -30.751701       -2.597963
 H         -11.321437      -32.411884       -3.232703
 H          -8.032145      -30.806145       -5.327634
 H          -8.137857      -32.495369       -5.781839
 H          -9.467272      -31.707151       -1.764509
 H          -9.111865      -30.271315       -2.763362
 H          -7.559965      -31.938723       -3.405074
 H          -8.622655      -33.177559       -3.542830
