20
 generated by VMD
 C         -40.771553     -102.442444      -34.990196
 N         -41.546806     -102.263725      -35.852737
 H         -39.849300     -104.733383      -32.274391
 H         -39.932919     -102.582596      -34.391865
 C         -38.836185     -104.811096      -32.119617
 C         -37.825363     -104.002289      -32.830475
 C         -38.363228     -105.939758      -31.191206
 C         -36.531666     -103.929245      -32.058567
 C         -37.131611     -105.607460      -30.401390
 C         -36.059635     -105.213585      -31.363861
 H         -38.225460     -103.062103      -33.043064
 H         -37.857639     -104.499481      -33.777489
 H         -39.101494     -106.239479      -30.510401
 H         -38.220852     -106.860588      -31.924362
 H         -36.790665     -103.211433      -31.251459
 H         -35.727665     -103.365242      -32.544655
 H         -36.859768     -106.581337      -29.925035
 H         -37.313965     -104.848541      -29.511082
 H         -35.314987     -104.875252      -30.682369
 H         -35.687695     -105.985046      -32.017971
