20
 generated by VMD
 C         -60.500515     -169.800491      -55.148548
 N         -59.359249     -169.591599      -55.407822
 H         -63.367840     -170.714111      -56.746918
 H         -61.564922     -170.091721      -55.055565
 C         -63.238327     -169.669495      -56.891777
 C         -62.559860     -169.050018      -58.112976
 C         -64.006752     -168.766342      -56.058521
 C         -63.189648     -167.797516      -58.718346
 C         -64.599052     -167.396133      -56.770893
 C         -63.608685     -166.826157      -57.663525
 H         -62.514141     -169.977753      -58.805614
 H         -61.529095     -168.698807      -57.894089
 H         -64.920570     -169.263550      -55.533188
 H         -63.465244     -168.280579      -55.267593
 H         -64.027443     -168.074127      -59.331470
 H         -62.502182     -167.455719      -59.482777
 H         -65.022537     -166.762146      -55.985073
 H         -65.515556     -167.860703      -57.343369
 H         -63.975124     -165.905350      -58.097736
 H         -62.708797     -166.421036      -57.077915
