20
 generated by VMD
 C         -58.542461     -161.763870      -56.454124
 N         -58.002029     -160.856155      -56.091717
 H         -59.333282     -164.795242      -55.401215
 H         -59.140213     -162.626190      -56.755062
 C         -60.221203     -164.329636      -54.827065
 C         -60.021946     -163.680359      -53.546291
 C         -61.641411     -164.404175      -55.209324
 C         -60.711830     -162.282501      -53.389992
 C         -62.549824     -163.148178      -54.755047
 C         -62.117615     -162.473816      -53.469685
 H         -58.927197     -163.500534      -53.558395
 H         -60.298519     -164.255081      -52.694672
 H         -61.657578     -164.504623      -56.383919
 H         -62.103241     -165.338791      -54.957253
 H         -60.315830     -161.561401      -54.005341
 H         -60.280384     -161.915833      -52.451580
 H         -63.584015     -163.579651      -54.504173
 H         -62.413116     -162.402695      -55.500004
 H         -62.651081     -161.562210      -53.184303
 H         -62.330261     -163.158066      -52.641415
