20
 generated by VMD
 C         -63.014568     -174.871582      -54.667881
 N         -62.986740     -174.320084      -55.684856
 H         -63.814861     -173.292664      -57.983891
 H         -62.883499     -175.448471      -53.751839
 C         -63.992390     -172.297958      -58.456532
 C         -64.342339     -171.092880      -57.549942
 C         -64.454681     -172.217377      -59.913746
 C         -63.837933     -169.792145      -58.193604
 C         -64.073784     -170.869537      -60.505550
 C         -64.392830     -169.670074      -59.656185
 H         -63.853813     -171.376694      -56.565937
 H         -65.350327     -171.133133      -57.434757
 H         -63.931591     -173.077545      -60.379482
 H         -65.598450     -172.452637      -59.789631
 H         -62.781437     -169.818405      -58.295868
 H         -64.258263     -168.915421      -57.663380
 H         -64.662086     -170.763672      -61.397842
 H         -63.060005     -170.792404      -60.920319
 H         -63.980286     -168.774933      -60.027325
 H         -65.490959     -169.577362      -59.587967
