20
 generated by VMD
 C         -59.908737     -153.055130      -51.160175
 N         -60.624084     -152.240707      -51.703655
 H         -57.038754     -153.520721      -49.584766
 H         -59.209209     -153.810577      -50.725327
 C         -56.255756     -152.783722      -49.755520
 C         -54.814358     -153.257584      -49.472687
 C         -56.551300     -151.417175      -50.330044
 C         -53.875843     -152.463043      -50.408997
 C         -55.603848     -150.872604      -51.461456
 C         -54.155952     -151.054382      -50.868713
 H         -54.833172     -154.287064      -49.608891
 H         -54.508694     -153.007919      -48.449360
 H         -57.587574     -151.391769      -50.577427
 H         -56.458031     -150.764816      -49.441082
 H         -53.829624     -152.961578      -51.375980
 H         -52.919830     -152.470825      -49.886875
 H         -55.948502     -149.750504      -51.582062
 H         -55.875813     -151.270096      -52.414478
 H         -53.413696     -150.991730      -51.797722
 H         -53.935268     -150.326157      -50.111874
