20
 generated by VMD
 C         -31.752712      -76.545876      -24.663473
 N         -31.821831      -76.926117      -25.756195
 H         -29.343554      -77.035149      -22.392826
 H         -31.339079      -76.197746      -23.813053
 C         -28.530207      -77.744469      -22.259836
 C         -27.547377      -78.104927      -23.341639
 C         -28.617298      -78.698120      -21.011372
 C         -26.147509      -78.284233      -22.612417
 C         -27.264931      -79.030235      -20.480537
 C         -26.230082      -79.463303      -21.572634
 H         -27.454321      -77.248238      -23.887075
 H         -27.849470      -78.843124      -24.010559
 H         -29.048773      -78.140686      -20.139584
 H         -29.116045      -79.603828      -21.212536
 H         -25.814814      -77.376976      -22.130173
 H         -25.393427      -78.444817      -23.372665
 H         -27.325268      -79.756805      -19.690765
 H         -26.958820      -78.180527      -20.023046
 H         -25.294533      -79.719772      -21.017643
 H         -26.662199      -80.293732      -22.064995
