20
 generated by VMD
 C         -70.112877     -183.985916      -65.989616
 N         -69.014107     -183.753677      -66.345085
 H         -69.018188     -184.549866      -63.397129
 H         -71.106514     -184.293793      -65.643753
 C         -68.688217     -183.937744      -62.578255
 C         -69.012871     -184.695862      -61.244194
 C         -68.029259     -182.627609      -62.663712
 C         -67.709389     -184.604568      -60.356834
 C         -67.030861     -182.551224      -61.476463
 C         -67.340591     -183.181641      -60.060009
 H         -69.248581     -185.732590      -61.428543
 H         -69.922585     -184.148712      -60.886951
 H         -67.391609     -182.559586      -63.566578
 H         -68.823334     -181.951599      -62.631184
 H         -67.035393     -185.282593      -60.809818
 H         -68.093018     -185.092911      -59.473602
 H         -66.808907     -181.519501      -61.158184
 H         -66.089523     -183.065323      -61.873894
 H         -66.523903     -182.988678      -59.306133
 H         -68.107376     -182.691864      -59.618690
