20
 generated by VMD
 C         -12.912915      -43.327637       -6.873090
 N         -12.801245      -42.200836       -6.889003
 H         -14.594563      -43.816574       -8.431183
 H         -14.610782      -42.527287       -9.503810
 C         -15.119617      -43.444523       -9.331387
 C         -16.561768      -43.179981       -8.982554
 C         -14.980554      -44.445469      -10.481227
 C         -17.238401      -42.547264      -10.176744
 C         -15.492743      -43.893875      -11.736558
 C         -16.919294      -43.407761      -11.494354
 H         -16.608887      -42.521626       -8.059273
 H         -17.071526      -44.130001       -8.712574
 H         -13.955280      -44.852161      -10.600283
 H         -15.488456      -45.343052      -10.109762
 H         -16.932886      -41.492718      -10.298954
 H         -18.348085      -42.500828      -10.056892
 H         -15.637702      -44.643196      -12.598247
 H         -14.836931      -43.120277      -12.059323
 H         -17.258238      -42.909439      -12.411633
 H         -17.520433      -44.267181      -11.352802
