20
 generated by VMD
 C         -39.785435      -99.367104      -28.544031
 N         -39.031357     -100.020111      -27.985222
 H         -37.119072      -99.086433      -30.659306
 H         -40.604336      -98.690857      -28.935947
 C         -36.370255      -98.387863      -30.726913
 C         -35.837067      -98.518623      -32.028446
 C         -35.486870      -97.932869      -29.595627
 C         -34.564270      -97.746529      -32.317776
 C         -34.380478      -96.988861      -30.103159
 C         -33.579502      -97.742119      -31.148161
 H         -36.632065      -98.338051      -32.744110
 H         -35.623707      -99.651184      -32.048649
 H         -36.074295      -97.377098      -28.924328
 H         -35.148083      -98.875130      -29.101465
 H         -34.802715      -96.674652      -32.588753
 H         -34.044205      -98.189140      -33.094986
 H         -33.701107      -96.711159      -29.320019
 H         -34.703266      -95.966156      -30.391554
 H         -32.562473      -97.193489      -31.323013
 H         -33.276829      -98.736656      -30.858057
