20
 generated by VMD
 C         -47.957325     -139.865723      -46.073875
 N         -46.825058     -139.541931      -45.819862
 H         -51.097916     -138.608078      -45.109646
 H         -49.036530     -140.027512      -46.333649
 C         -51.959007     -139.197891      -45.400772
 C         -52.019032     -139.442688      -46.960686
 C         -53.167999     -139.028946      -44.585476
 C         -53.036850     -140.470642      -47.207653
 C         -54.288139     -140.085785      -45.053017
 C         -54.341599     -140.114365      -46.520435
 H         -51.030331     -139.779572      -47.354240
 H         -52.461159     -138.576431      -47.405392
 H         -52.870159     -139.287521      -43.543175
 H         -53.620979     -137.988327      -44.523781
 H         -52.672588     -141.341476      -46.649075
 H         -53.231045     -140.733597      -48.218929
 H         -55.149094     -139.697754      -44.467342
 H         -54.010250     -141.099655      -44.764465
 H         -55.040039     -140.844177      -46.706837
 H         -54.869030     -139.285034      -46.989475
