20
 generated by VMD
 C         -60.835159     -154.876953      -51.505287
 N         -60.827221     -154.036041      -52.243687
 H         -57.559177     -153.646408      -52.984295
 H         -60.847977     -155.693375      -50.852074
 C         -56.823940     -153.744263      -52.180130
 C         -57.388096     -154.035706      -50.818775
 C         -55.559860     -153.062241      -52.395226
 C         -56.157928     -154.302643      -49.948761
 C         -54.435749     -153.478317      -51.429913
 C         -54.967690     -153.424408      -50.004704
 H         -58.159561     -154.715851      -50.834114
 H         -57.818279     -153.102402      -50.538864
 H         -55.180298     -153.296219      -53.433918
 H         -55.585049     -151.962006      -52.430733
 H         -55.767033     -155.318893      -49.982861
 H         -56.629234     -154.395142      -48.937057
 H         -53.601955     -152.836243      -51.633087
 H         -54.100788     -154.561310      -51.515816
 H         -54.154610     -153.594940      -49.331474
 H         -55.248451     -152.456757      -49.544056
