20
 generated by VMD
 C         -78.309593     -209.775452      -77.074356
 N         -78.809921     -208.809891      -77.581512
 H         -78.930618     -210.762070      -73.630966
 H         -77.836342     -210.656799      -76.607040
 C         -78.808426     -211.549484      -72.920990
 C         -77.654411     -211.779831      -71.962387
 C         -79.882812     -212.542343      -72.838394
 C         -78.084518     -212.196518      -70.565048
 C         -80.482109     -212.672760      -71.463501
 C         -79.293564     -213.236084      -70.738007
 H         -77.102608     -210.849304      -71.759575
 H         -77.078308     -212.598923      -72.363930
 H         -80.671883     -212.255783      -73.540817
 H         -79.637642     -213.562958      -73.310623
 H         -78.477135     -211.382751      -69.947388
 H         -77.183594     -212.610703      -70.127663
 H         -81.301186     -213.470352      -71.388885
 H         -80.748085     -211.796173      -71.032738
 H         -79.492126     -213.516693      -69.672913
 H         -78.959435     -214.087540      -71.260658
