20
 generated by VMD
 C         -10.994396      -39.536900       -7.055227
 N         -11.043783      -40.007320       -6.030681
 H         -13.373611      -40.862991       -9.097058
 H         -14.802155      -39.916973       -9.196269
 C         -14.429343      -40.928104       -9.246931
 C         -15.118102      -41.714031       -8.098424
 C         -14.701429      -41.456955      -10.670981
 C         -16.568785      -41.907181       -8.337290
 C         -16.122154      -41.865757      -10.854519
 C         -16.772541      -42.611519       -9.665973
 H         -15.051600      -41.065022       -7.194491
 H         -14.501124      -42.618374       -7.968140
 H         -14.458072      -40.646870      -11.384679
 H         -14.027456      -42.371216      -10.830683
 H         -17.011143      -40.897972       -8.369135
 H         -16.958498      -42.582588       -7.522455
 H         -16.329166      -42.448635      -11.787045
 H         -16.756098      -41.023926      -10.990203
 H         -17.811279      -42.782177       -9.886739
 H         -16.396969      -43.623295       -9.645528
