20
 generated by VMD
 C         -57.707264     -166.156754      -56.456989
 N         -58.227577     -166.936539      -55.749554
 H         -60.604580     -165.215195      -54.606956
 H         -57.253265     -165.378693      -57.063271
 C         -61.521770     -165.466599      -55.117970
 C         -61.808861     -166.717300      -55.832699
 C         -62.445969     -164.315323      -55.411781
 C         -63.242710     -167.133713      -55.945084
 C         -63.888298     -164.666534      -55.681580
 C         -64.070793     -165.920319      -56.516014
 H         -61.277454     -167.526871      -55.217117
 H         -61.107235     -166.754440      -56.609470
 H         -62.436790     -163.719803      -54.555218
 H         -62.053299     -163.659317      -56.233795
 H         -63.653324     -167.315399      -54.971268
 H         -63.210606     -167.968491      -56.611168
 H         -64.435883     -163.808884      -56.163628
 H         -64.446930     -164.736893      -54.808773
 H         -65.134621     -166.331604      -56.585201
 H         -63.772667     -165.738083      -57.601288
