20
 generated by VMD
 C         -29.359863      -90.259521      -25.109554
 N         -29.047455      -91.320068      -25.310282
 H         -32.280087      -90.750237      -26.860046
 H         -29.678459      -89.247391      -24.720566
 C         -33.139519      -90.744179      -27.542110
 C         -34.359020      -91.521034      -27.551590
 C         -33.007847      -89.748955      -28.628956
 C         -35.605480      -90.585480      -27.385471
 C         -34.046787      -88.739738      -28.371426
 C         -35.507835      -89.215546      -28.191820
 H         -34.331371      -92.168320      -26.659292
 H         -34.479481      -92.166100      -28.528770
 H         -32.030350      -89.236046      -28.561739
 H         -33.250069      -90.204391      -29.572487
 H         -35.694561      -90.361343      -26.243444
 H         -36.462643      -91.273071      -27.622631
 H         -34.084419      -87.916283      -29.113564
 H         -33.701748      -88.281975      -27.418320
 H         -36.199577      -88.464241      -27.837685
 H         -35.740849      -89.669655      -29.132244
