20
 generated by VMD
 C         -33.699661      -96.046783      -25.308731
 N         -33.618923      -97.080986      -25.863785
 H         -34.689064      -94.254524      -27.408384
 H         -33.666512      -95.192665      -24.759602
 C         -34.789803      -93.977562      -28.471605
 C         -36.050648      -94.236824      -29.179396
 C         -33.539856      -93.517639      -29.129045
 C         -36.197296      -93.473206      -30.528524
 C         -33.720993      -92.654022      -30.360516
 C         -34.812984      -93.299515      -31.240929
 H         -36.799801      -93.885201      -28.467596
 H         -36.270462      -95.253311      -29.370729
 H         -32.983650      -93.024101      -28.348734
 H         -32.988846      -94.402695      -29.359091
 H         -36.806866      -92.548607      -30.478170
 H         -36.839336      -94.120850      -31.026724
 H         -32.802845      -92.492210      -31.006237
 H         -33.934601      -91.627953      -30.054737
 H         -35.126358      -92.748474      -32.199451
 H         -34.539787      -94.261978      -31.462122
