20
 generated by VMD
 C         -39.963047     -100.645058      -30.841866
 N         -40.425652      -99.921165      -31.624952
 H         -37.218681     -103.073006      -31.141935
 H         -39.670288     -101.417374      -30.235334
 C         -36.689064     -102.168739      -31.059517
 C         -36.418743     -101.444595      -32.403809
 C         -35.584610     -101.800102      -30.105906
 C         -36.311241      -99.929932      -32.372551
 C         -35.567554     -100.307266      -30.008516
 C         -35.281845      -99.568680      -31.388462
 H         -37.289799     -101.769684      -33.012505
 H         -35.527195     -101.919037      -32.785980
 H         -35.827583     -102.282242      -29.191940
 H         -34.618961     -102.266083      -30.424849
 H         -37.250927      -99.375267      -31.987944
 H         -36.115398      -99.701141      -33.427982
 H         -34.921295     -100.001511      -29.162695
 H         -36.612228     -100.043816      -29.637087
 H         -35.220821      -98.531990      -31.103806
 H         -34.348293      -99.717628      -31.888227
