20
 generated by VMD
 C          -1.682103       -8.595865        0.019924
 N          -2.376274       -7.782385        0.358974
 H          -3.312190       -9.222795        2.479429
 H          -1.974683      -10.309318        2.411121
 C          -2.963134      -10.265205        2.814116
 C          -3.846902      -11.429628        2.201489
 C          -3.043858      -10.309765        4.326559
 C          -3.511310      -12.847496        2.748891
 C          -2.743100      -11.703024        4.938763
 C          -3.540640      -12.810618        4.238594
 H          -3.903210      -11.404443        1.117808
 H          -4.911444      -11.120622        2.427067
 H          -2.347830       -9.493072        4.701526
 H          -4.101644      -10.053229        4.595874
 H          -2.556717      -13.075291        2.300217
 H          -4.219155      -13.502010        2.274942
 H          -3.007539      -11.736249        6.004809
 H          -1.663369      -11.961599        4.759058
 H          -3.280643      -13.754573        4.682853
 H          -4.565413      -12.626447        4.575284
