20
 generated by VMD
 C         -50.713818     -145.056396      -44.815823
 N         -50.875076     -146.070694      -44.302067
 H         -53.510315     -144.283844      -46.271461
 H         -50.758324     -144.095703      -45.361526
 C         -53.571289     -143.610718      -47.099762
 C         -52.559944     -143.561310      -48.293159
 C         -54.746483     -142.623062      -47.079613
 C         -53.328468     -143.517670      -49.670738
 C         -55.433777     -142.716354      -48.424408
 C         -54.561352     -142.508820      -49.671436
 H         -51.820965     -144.383301      -48.309952
 H         -51.903030     -142.775604      -48.203991
 H         -55.488224     -142.798233      -46.321285
 H         -54.165417     -141.652359      -46.886303
 H         -53.766670     -144.489304      -49.719364
 H         -52.817059     -143.197891      -50.537338
 H         -56.287106     -141.993179      -48.404045
 H         -55.849201     -143.651810      -48.569569
 H         -55.041851     -142.508072      -50.609413
 H         -54.160442     -141.534866      -49.709473
