20
 generated by VMD
 C         -38.912632     -112.003769      -35.895542
 N         -38.486729     -111.426506      -36.783398
 H         -40.857944     -115.053841      -34.954056
 H         -39.295872     -112.470169      -34.996056
 C         -41.448387     -114.317513      -35.354046
 C         -41.782726     -114.374596      -36.876625
 C         -42.185070     -113.218338      -34.602390
 C         -43.244972     -114.403816      -37.087044
 C         -43.703621     -113.358757      -34.857735
 C         -44.046684     -113.257507      -36.400803
 H         -41.439186     -115.345299      -37.130215
 H         -41.222454     -113.551262      -37.346668
 H         -42.035450     -113.395668      -33.529179
 H         -41.696774     -112.326126      -34.977104
 H         -43.692532     -115.307678      -36.706692
 H         -43.530334     -114.301361      -38.117741
 H         -44.137531     -112.545273      -34.218868
 H         -44.007256     -114.350220      -34.449760
 H         -45.133698     -113.667084      -36.571220
 H         -43.845592     -112.391342      -37.000076
