20
 generated by VMD
 C         -23.181633      -53.452854      -13.467214
 N         -23.432970      -52.692612      -14.352645
 H         -20.727695      -55.280506      -13.936264
 H         -22.787552      -54.238476      -12.592500
 C         -19.570200      -54.932438      -14.061483
 C         -19.093925      -53.511414      -13.708622
 C         -18.617994      -56.019272      -14.348046
 C         -17.759241      -53.308598      -13.041731
 C         -17.490065      -55.900459      -13.323664
 C         -16.795757      -54.543385      -13.328124
 H         -19.766405      -53.070610      -12.949283
 H         -19.079905      -52.991398      -14.662756
 H         -19.110270      -56.963711      -14.315566
 H         -18.325935      -55.804066      -15.394275
 H         -17.907923      -53.087868      -11.964010
 H         -17.316259      -52.391338      -13.457084
 H         -16.736496      -56.667763      -13.432868
 H         -17.952164      -56.073303      -12.331797
 H         -15.889503      -54.540859      -12.715487
 H         -16.372990      -54.410130      -14.379113
