20
 generated by VMD
 C         -64.947456     -175.555817      -55.825050
 N         -64.394958     -176.455399      -56.305450
 H         -64.278221     -174.436523      -58.347157
 H         -65.454872     -174.745438      -55.325546
 C         -64.646049     -173.533997      -58.955349
 C         -65.405434     -172.309143      -58.355179
 C         -64.027863     -173.326111      -60.419437
 C         -64.548927     -170.979263      -58.460999
 C         -63.077148     -172.071808      -60.258980
 C         -63.897003     -170.835144      -59.772457
 H         -65.697090     -172.345291      -57.336117
 H         -66.389778     -172.001740      -58.900066
 H         -63.316143     -174.261551      -60.712738
 H         -64.825684     -173.225296      -61.226868
 H         -63.800625     -171.019867      -57.735657
 H         -65.157860     -170.134598      -58.298836
 H         -62.617500     -171.633255      -61.174248
 H         -62.249321     -172.369720      -59.622768
 H         -63.192886     -169.979858      -59.571812
 H         -64.643250     -170.555832      -60.507343
