20
 generated by VMD
 C         -73.915680     -201.349258      -65.369827
 N         -72.805443     -201.073975      -65.501732
 H         -74.993950     -198.233322      -66.930908
 H         -74.956482     -201.368835      -65.063034
 C         -74.469131     -197.585175      -67.607399
 C         -74.675537     -196.092178      -67.734192
 C         -73.759300     -198.292953      -68.717766
 C         -73.510284     -195.409119      -68.523102
 C         -73.787949     -197.475861      -70.025543
 C         -72.966743     -196.176224      -69.766388
 H         -74.727364     -195.699417      -66.624886
 H         -75.570419     -196.004135      -68.224480
 H         -72.687325     -198.509277      -68.464645
 H         -74.368881     -199.249634      -68.809219
 H         -72.696487     -195.285934      -67.764969
 H         -73.854401     -194.406021      -68.696930
 H         -74.732292     -197.147202      -70.397263
 H         -73.343231     -197.983231      -70.837708
 H         -71.897980     -196.204285      -69.761803
 H         -73.159431     -195.492416      -70.691833
