20
 generated by VMD
 C         -49.654541     -131.813217      -46.600483
 N         -50.108162     -132.553772      -47.302986
 H         -47.748123     -133.072021      -44.208237
 H         -49.298965     -130.975388      -46.066277
 C         -48.610924     -133.447464      -43.596172
 C         -49.443485     -134.593430      -43.990425
 C         -49.088936     -132.640106      -42.409565
 C         -49.567577     -135.538681      -42.838642
 C         -49.119232     -133.551010      -41.215805
 C         -49.934036     -134.868271      -41.556976
 H         -48.994339     -135.011459      -44.811604
 H         -50.414391     -134.203293      -44.362324
 H         -48.432514     -131.730804      -42.268147
 H         -50.176739     -132.206802      -42.586246
 H         -48.509541     -135.965012      -42.631214
 H         -50.217987     -136.320282      -43.294323
 H         -49.699032     -133.071899      -40.389729
 H         -48.144093     -133.764786      -40.928265
 H         -49.831974     -135.654678      -40.738594
 H         -50.997776     -134.849701      -41.455353
