20
 generated by VMD
 C         -30.098951      -92.720665      -25.481453
 N         -31.115639      -93.246780      -25.784698
 H         -33.075592      -91.026711      -26.479881
 H         -29.244520      -92.139633      -25.284327
 C         -33.639164      -91.154358      -27.366743
 C         -34.747845      -92.168861      -27.474886
 C         -33.130272      -90.366333      -28.549755
 C         -35.877274      -91.661041      -28.283823
 C         -34.279514      -89.954933      -29.356449
 C         -35.206093      -91.167595      -29.591270
 H         -35.086739      -92.356667      -26.323246
 H         -34.155735      -93.055107      -27.716166
 H         -32.513634      -89.490662      -28.220039
 H         -32.537659      -90.993698      -29.194283
 H         -36.415291      -90.845474      -27.853397
 H         -36.621571      -92.423073      -28.600840
 H         -33.871098      -89.416435      -30.248426
 H         -34.797260      -89.138580      -28.781427
 H         -36.064671      -90.840515      -30.226849
 H         -34.657059      -91.898361      -30.215246
