20
 generated by VMD
 C         -47.672779     -125.406952      -39.063969
 N         -47.893280     -126.423683      -38.526508
 H         -45.508072     -122.906532      -37.802261
 H         -47.533264     -124.579666      -39.701481
 C         -45.259693     -123.072655      -38.881542
 C         -44.484535     -124.197258      -39.333721
 C         -45.694458     -121.908081      -39.763573
 C         -44.719517     -124.500259      -40.914673
 C         -45.803223     -122.247986      -41.320072
 C         -44.582077     -123.229729      -41.699730
 H         -44.772255     -125.154999      -38.918575
 H         -43.448254     -124.053413      -38.988388
 H         -46.694099     -121.475204      -39.525864
 H         -45.031551     -121.000458      -39.649685
 H         -45.612511     -125.095680      -41.233715
 H         -43.948631     -125.315147      -41.184319
 H         -45.703979     -121.213554      -41.885399
 H         -46.808815     -122.620956      -41.720257
 H         -44.630085     -123.500977      -42.768524
 H         -43.609070     -122.790649      -41.582489
