20
 generated by VMD
 C         -58.598183     -161.957474      -56.541878
 N         -57.656952     -161.310852      -56.152691
 H         -59.508797     -164.952209      -55.349674
 H         -59.477428     -162.577789      -56.761162
 C         -60.275703     -164.216843      -54.965965
 C         -59.990948     -163.551559      -53.622269
 C         -61.732136     -164.535461      -55.394543
 C         -61.064915     -162.522003      -53.089108
 C         -62.477631     -163.208649      -54.985420
 C         -62.474407     -162.875031      -53.462112
 H         -59.000294     -163.042770      -53.648178
 H         -59.711922     -164.310379      -52.764557
 H         -61.708508     -164.620499      -56.436165
 H         -62.290897     -165.434952      -55.009491
 H         -60.644360     -161.662659      -53.703892
 H         -60.825558     -162.294678      -52.063732
 H         -63.415760     -163.137970      -55.289566
 H         -62.026081     -162.366364      -55.535225
 H         -63.068184     -161.979080      -53.162628
 H         -62.805378     -163.759048      -52.854267
