20
 generated by VMD
 C         -79.496803     -206.765778      -74.433601
 N         -80.326416     -207.607544      -74.529587
 H         -76.346970     -208.107025      -73.147034
 H         -78.658684     -206.035721      -74.529335
 C         -76.769318     -207.811264      -72.175179
 C         -75.560333     -207.306870      -71.435944
 C         -77.780014     -208.732346      -71.641930
 C         -75.708458     -207.319199      -69.904327
 C         -77.869652     -208.420074      -70.093422
 C         -76.571045     -208.502365      -69.435387
 H         -75.578186     -206.208939      -71.566933
 H         -74.616028     -207.778244      -71.806831
 H         -78.727776     -208.608887      -72.128517
 H         -77.493690     -209.779022      -71.807320
 H         -76.180145     -206.447922      -69.445839
 H         -74.800797     -207.372528      -69.314667
 H         -78.591255     -209.113907      -69.784424
 H         -78.358780     -207.402451      -69.986702
 H         -76.522987     -208.504868      -68.291229
 H         -76.114769     -209.475708      -69.588615
