20
 generated by VMD
 C         -39.801594     -116.696869      -34.760471
 N         -39.407867     -115.672073      -34.477695
 H         -41.390984     -116.412033      -37.820385
 H         -39.917583     -117.773499      -35.087822
 C         -42.405056     -115.931763      -37.758053
 C         -43.161327     -115.755066      -39.099777
 C         -43.328991     -115.853424      -36.551147
 C         -44.468864     -116.613243      -39.151230
 C         -44.611881     -116.660942      -36.647892
 C         -45.316097     -116.177414      -37.928169
 H         -42.496140     -115.937943      -39.920059
 H         -43.462124     -114.748352      -39.244598
 H         -42.742321     -116.201675      -35.606895
 H         -43.543369     -114.804184      -36.247013
 H         -44.150269     -117.656120      -39.029316
 H         -45.022373     -116.509567      -40.175713
 H         -45.148739     -116.437546      -35.766964
 H         -44.449615     -117.688553      -36.580002
 H         -46.378021     -116.762115      -38.098072
 H         -45.414635     -115.048065      -37.998291
