20
 generated by VMD
 C         -63.476151     -174.698120      -56.023186
 N         -62.334072     -174.661102      -56.151020
 H         -65.914276     -173.204758      -57.893852
 H         -64.526237     -174.808868      -55.789131
 C         -65.179420     -172.458099      -58.285736
 C         -65.452522     -170.958130      -57.943306
 C         -64.543633     -172.754776      -59.664978
 C         -64.161697     -170.258743      -58.102715
 C         -63.433178     -171.836319      -59.999447
 C         -63.600132     -170.361938      -59.510201
 H         -65.877747     -170.889740      -56.823795
 H         -66.195854     -170.719574      -58.620899
 H         -64.242287     -173.885635      -59.696407
 H         -65.398590     -172.512177      -60.419250
 H         -63.441200     -170.595901      -57.435116
 H         -64.294846     -169.250458      -57.869137
 H         -63.337936     -171.677719      -61.060028
 H         -62.514156     -172.252686      -59.647217
 H         -62.616577     -169.823212      -59.592751
 H         -64.309196     -169.844559      -60.121685
