20
 generated by VMD
 C         -61.641434     -156.074020      -54.362617
 N         -61.085648     -155.061844      -54.110516
 H         -58.805195     -155.111328      -51.937183
 H         -62.182758     -157.044510      -54.380932
 C         -57.775337     -155.114853      -51.607807
 C         -57.422050     -154.525589      -50.264496
 C         -56.685226     -155.479202      -52.550594
 C         -56.207966     -154.966965      -49.592106
 C         -55.492321     -156.056259      -51.747066
 C         -55.033695     -155.126099      -50.647663
 H         -58.212635     -154.552063      -49.491489
 H         -57.361969     -153.418808      -50.557064
 H         -56.870193     -156.216980      -53.293159
 H         -56.554676     -154.507034      -53.135376
 H         -56.401871     -155.971725      -49.114563
 H         -55.976665     -154.275024      -48.746269
 H         -54.691418     -156.183533      -52.470104
 H         -55.794209     -157.105881      -51.386719
 H         -54.198036     -155.686188      -50.127869
 H         -54.681129     -154.239929      -51.118397
