20
 generated by VMD
 C         -62.692875     -172.024506      -55.357903
 N         -62.064396     -173.020660      -55.340160
 H         -61.646477     -171.100189      -58.251633
 H         -63.175934     -171.069016      -55.597343
 C         -62.595867     -170.593079      -58.235790
 C         -62.346027     -169.163422      -57.946842
 C         -63.785530     -171.306229      -58.708797
 C         -63.534462     -168.320831      -58.136444
 C         -64.990387     -170.367065      -58.844276
 C         -64.834496     -169.177765      -57.857384
 H         -61.433895     -168.712204      -58.521893
 H         -62.038040     -169.142914      -56.923706
 H         -63.599903     -171.799423      -59.659904
 H         -63.833878     -172.149445      -58.057072
 H         -63.724537     -167.919464      -59.122238
 H         -63.561855     -167.389709      -57.436329
 H         -65.939774     -170.942688      -58.702290
 H         -65.048378     -170.063049      -59.899776
 H         -65.715599     -168.492218      -57.846649
 H         -64.737282     -169.557892      -56.875561
