20
 generated by VMD
 C         -23.223654      -53.042206      -12.704309
 N         -22.886242      -52.578510      -13.713807
 H         -20.443714      -54.703140      -13.750857
 H         -23.561522      -53.222435      -11.748051
 C         -19.415344      -54.457584      -13.744967
 C         -19.015358      -53.113968      -14.133819
 C         -18.434175      -55.524673      -13.912728
 C         -17.688540      -52.704933      -13.477119
 C         -17.168257      -55.283253      -13.138228
 C         -16.639065      -53.835270      -13.289857
 H         -19.789417      -52.431297      -13.860611
 H         -18.941259      -53.091526      -15.166193
 H         -18.833223      -56.492382      -13.580495
 H         -18.235247      -55.545895      -15.006145
 H         -17.895981      -52.387020      -12.446182
 H         -17.241262      -51.829323      -13.968335
 H         -16.366184      -55.985611      -13.459002
 H         -17.405363      -55.535412      -12.098225
 H         -16.075193      -53.592983      -12.396266
 H         -15.924562      -53.885567      -14.133446
