20
 generated by VMD
 C         -47.978085     -134.593155      -46.925377
 N         -47.971008     -134.144180      -47.943012
 H         -50.339870     -134.296921      -44.826340
 H         -47.698174     -134.789032      -45.882248
 C         -50.555561     -135.251801      -44.294926
 C         -50.872177     -136.559769      -45.062054
 C         -51.046253     -135.125153      -42.952732
 C         -50.931446     -137.751175      -44.221180
 C         -51.271385     -136.448669      -42.162022
 C         -51.777065     -137.597046      -42.922253
 H         -50.045456     -136.581009      -45.841328
 H         -51.760849     -136.368912      -45.583511
 H         -50.333946     -134.432800      -42.446728
 H         -51.990120     -134.603027      -43.089268
 H         -49.941242     -138.090347      -43.884102
 H         -51.339573     -138.525513      -44.929291
 H         -51.932808     -136.381607      -41.244030
 H         -50.324257     -136.776443      -41.739723
 H         -51.804359     -138.459274      -42.281921
 H         -52.841118     -137.208038      -43.144386
