20
 generated by VMD
 C         -50.850086     -129.755951      -46.108326
 N         -50.835670     -130.361679      -45.173439
 H         -48.316715     -131.536530      -44.349144
 H         -50.656952     -128.948746      -46.778343
 C         -47.967640     -131.589417      -43.356956
 C         -48.285172     -132.886719      -42.438156
 C         -47.921444     -130.374130      -42.512119
 C         -47.513523     -132.844528      -41.099178
 C         -47.221985     -130.411514      -41.187466
 C         -47.755016     -131.567184      -40.376415
 H         -48.178814     -133.825974      -43.099602
 H         -49.270805     -132.847504      -42.113819
 H         -47.496426     -129.581604      -43.048206
 H         -48.988678     -130.032333      -42.357018
 H         -46.503227     -133.019211      -41.450733
 H         -47.843506     -133.700211      -40.517670
 H         -47.425781     -129.582550      -40.480312
 H         -46.192463     -130.565842      -41.200500
 H         -47.266876     -131.558975      -39.398491
 H         -48.836781     -131.560349      -40.189453
