20
 generated by VMD
 C         -77.436722     -203.212219      -68.019585
 N         -77.812546     -204.197922      -67.617851
 H         -74.997803     -201.109268      -67.367592
 H         -77.043991     -202.292145      -68.527489
 C         -74.613434     -200.735031      -68.349937
 C         -75.033272     -199.314590      -68.672302
 C         -73.772575     -201.607239      -69.298790
 C         -74.121529     -198.562653      -69.558746
 C         -72.965714     -200.858246      -70.332108
 C         -73.664719     -199.586823      -70.765656
 H         -75.051910     -198.865204      -67.643600
 H         -76.044327     -199.362366      -68.989792
 H         -73.200371     -202.300735      -68.660530
 H         -74.543861     -202.262634      -69.778496
 H         -73.232010     -198.290695      -68.975952
 H         -74.444763     -197.571747      -69.927246
 H         -72.712677     -201.526260      -71.096016
 H         -72.056580     -200.496628      -69.874756
 H         -73.001564     -199.007706      -71.510315
 H         -74.526886     -199.814255      -71.317322
