20
 generated by VMD
 C         -70.634369     -196.679581      -65.962837
 N         -69.479752     -196.439758      -65.930031
 H         -73.640144     -195.384506      -64.685112
 H         -71.656067     -197.038498      -66.015282
 C         -73.520851     -194.914062      -65.674606
 C         -72.594933     -193.793274      -65.941284
 C         -74.451584     -195.341095      -66.776093
 C         -72.679237     -193.085373      -67.305717
 C         -73.818108     -195.208801      -68.146385
 C         -73.465874     -193.736115      -68.449791
 H         -71.537346     -194.171158      -65.863022
 H         -72.906013     -192.905060      -65.218620
 H         -74.598595     -196.485077      -66.657738
 H         -75.518761     -194.990631      -66.705399
 H         -71.597000     -193.016281      -67.653267
 H         -73.062988     -192.062851      -67.136467
 H         -74.527771     -195.647949      -68.902611
 H         -72.885780     -195.793121      -68.154564
 H         -72.886856     -193.566772      -69.401642
 H         -74.321358     -193.128906      -68.485092
