20
 generated by VMD
 C         -78.563599     -209.157990      -77.148102
 N         -77.896393     -209.625015      -78.000488
 H         -79.143875     -211.689713      -74.246254
 H         -79.120575     -208.692474      -76.320526
 C         -79.273926     -212.058472      -73.182571
 C         -78.020363     -212.167725      -72.309448
 C         -80.424225     -212.936264      -72.869591
 C         -78.265747     -212.650604      -70.858528
 C         -80.644829     -213.312881      -71.332489
 C         -79.305573     -213.707626      -70.602303
 H         -77.467697     -211.196503      -72.284859
 H         -77.386688     -212.977676      -72.752899
 H         -81.275635     -212.491272      -73.308372
 H         -80.401657     -213.872437      -73.471199
 H         -78.694214     -211.831497      -70.262146
 H         -77.315895     -212.867706      -70.440750
 H         -81.517036     -214.145081      -71.194283
 H         -81.039986     -212.430328      -70.887535
 H         -79.494225     -213.581177      -69.516228
 H         -79.099243     -214.690826      -70.770653
