20
 generated by VMD
 C         -29.623274      -88.228920      -25.793842
 N         -29.260069      -89.055466      -25.028872
 H         -31.296232      -90.160370      -27.558722
 H         -30.021734      -87.647141      -26.551329
 C         -32.340500      -89.716125      -27.473555
 C         -32.981964      -89.901031      -26.125320
 C         -33.351826      -89.464661      -28.696285
 C         -33.776535      -88.585045      -25.799141
 C         -34.027393      -88.221909      -28.260880
 C         -34.720264      -88.229149      -26.919401
 H         -32.198441      -90.189041      -25.395346
 H         -33.742817      -90.704773      -26.229542
 H         -32.767487      -89.294868      -29.639824
 H         -33.911087      -90.383514      -28.787962
 H         -33.066994      -87.764282      -25.505196
 H         -34.297432      -88.864426      -24.876938
 H         -34.817780      -88.148354      -28.978550
 H         -33.471550      -87.256378      -28.369957
 H         -34.991341      -87.236786      -26.669268
 H         -35.486694      -88.935661      -26.894842
