20
 generated by VMD
 C         -39.759594     -101.021149      -31.364374
 N         -40.489468     -100.115768      -31.258511
 H         -37.412567     -103.497162      -31.500526
 H         -38.985054     -101.764145      -31.209494
 C         -37.051262     -102.418167      -31.487001
 C         -36.338768     -101.759804      -32.622169
 C         -36.441399     -101.987694      -30.057751
 C         -35.783550     -100.345322      -32.580307
 C         -36.125694     -100.535942      -30.131556
 C         -35.194496     -100.006721      -31.241533
 H         -37.164158     -101.700531      -33.363552
 H         -35.613899     -102.498848      -32.917881
 H         -37.140118     -102.241028      -29.321064
 H         -35.544399     -102.622841      -29.813965
 H         -36.618923      -99.578819      -32.750595
 H         -34.997547     -100.091331      -33.315739
 H         -35.728046     -100.259628      -29.147022
 H         -37.074154     -100.081039      -30.299030
 H         -35.131767      -98.873993      -31.181326
 H         -34.190285     -100.479156      -31.058235
