20
 generated by VMD
 C         -49.621048     -127.261589      -40.080635
 N         -49.312050     -126.809509      -39.065243
 H         -46.622646     -126.767632      -42.270142
 H         -50.033009     -127.631638      -41.002750
 C         -46.296726     -126.152634      -41.474739
 C         -45.261009     -126.589546      -40.519691
 C         -46.802361     -124.672371      -41.423489
 C         -44.059971     -125.639465      -40.556198
 C         -45.563835     -123.678696      -41.458118
 C         -44.559757     -124.180878      -40.395691
 H         -44.868954     -127.561058      -40.744301
 H         -45.763905     -126.741943      -39.507389
 H         -47.523220     -124.438530      -42.207554
 H         -47.276123     -124.667625      -40.532814
 H         -43.489277     -125.801689      -41.468147
 H         -43.418621     -125.862328      -39.727306
 H         -46.075851     -122.723839      -41.245991
 H         -45.179363     -123.846016      -42.482231
 H         -43.698856     -123.428963      -40.440037
 H         -44.951332     -124.099342      -39.385014
