20
 generated by VMD
 C         -58.903339     -158.962326      -57.868816
 N         -58.463825     -160.075073      -57.629723
 H         -58.643784     -161.468246      -54.964622
 H         -59.359718     -158.005875      -58.106865
 C         -59.311226     -161.538788      -54.079643
 C         -58.792721     -161.888474      -52.667187
 C         -60.777203     -161.932022      -54.332016
 C         -59.882374     -161.634171      -51.573059
 C         -61.798065     -161.927917      -53.180321
 C         -61.212524     -162.404587      -51.798363
 H         -57.791378     -161.402695      -52.506924
 H         -58.458858     -163.032959      -52.565880
 H         -61.116665     -161.399994      -55.163795
 H         -60.773739     -162.990524      -54.615807
 H         -60.092468     -160.532196      -51.641125
 H         -59.336422     -161.874130      -50.676697
 H         -62.595879     -162.702240      -53.463894
 H         -62.277176     -160.921127      -52.963505
 H         -61.877365     -162.351593      -50.961143
 H         -60.986492     -163.494705      -51.978695
