20
 generated by VMD
 C         -67.555992     -179.824661      -58.457554
 N         -68.279854     -179.880814      -59.375050
 H         -67.430840     -176.866638      -59.955975
 H         -66.970909     -179.788452      -57.553429
 C         -66.410919     -176.395691      -60.162132
 C         -66.063751     -175.624237      -61.393818
 C         -65.238876     -176.885223      -59.241322
 C         -64.901100     -174.562515      -61.202221
 C         -64.127251     -175.928635      -59.221611
 C         -63.699223     -175.345779      -60.540417
 H         -66.848366     -175.070847      -61.865692
 H         -65.589432     -176.405167      -62.063919
 H         -65.570114     -177.146271      -58.270721
 H         -64.980278     -177.820480      -59.797546
 H         -65.323151     -173.762512      -60.553135
 H         -64.461845     -174.210037      -62.100254
 H         -63.315361     -176.379471      -58.599724
 H         -64.384827     -175.087708      -58.596699
 H         -63.095787     -174.475189      -60.440769
 H         -63.402767     -176.158096      -61.272160
