20
 generated by VMD
 C         -58.990398     -159.538696      -57.266113
 N         -58.291080     -160.145645      -57.931271
 H         -58.819958     -161.564346      -54.999210
 H         -59.692410     -159.016769      -56.668541
 C         -59.468605     -161.567108      -54.101345
 C         -58.835922     -162.044937      -52.783920
 C         -60.851894     -162.214783      -54.492321
 C         -59.917736     -161.950119      -51.698750
 C         -61.893787     -161.889175      -53.383411
 C         -61.410679     -162.434891      -52.014530
 H         -58.057007     -161.365860      -52.577015
 H         -58.345402     -163.000259      -52.775082
 H         -61.213688     -161.900116      -55.586491
 H         -60.778915     -163.284119      -54.561607
 H         -59.991749     -160.875534      -51.479507
 H         -59.693138     -162.592636      -50.929062
 H         -62.851181     -162.313110      -53.566921
 H         -61.915703     -160.845932      -53.455994
 H         -62.074375     -162.186386      -51.142445
 H         -61.359325     -163.519058      -52.121777
