20
 generated by VMD
 C         -23.134272      -54.279842      -15.132890
 N         -24.100769      -53.685585      -15.409270
 H         -20.351547      -54.805492      -15.340200
 H         -21.994125      -54.648846      -14.897599
 C         -19.639618      -55.222908      -14.718310
 C         -18.985720      -54.490200      -13.506858
 C         -19.183500      -56.665543      -15.039264
 C         -18.488735      -55.425987      -12.321836
 C         -18.278385      -57.279163      -14.039421
 C         -17.594276      -56.383217      -12.983576
 H         -19.827309      -53.850506      -13.081017
 H         -18.091442      -53.918579      -13.909724
 H         -20.143394      -57.207012      -15.007516
 H         -18.723440      -56.640118      -16.032007
 H         -19.292919      -55.955788      -11.810448
 H         -17.994888      -54.786667      -11.600825
 H         -17.552982      -57.844624      -14.553282
 H         -18.857561      -58.031834      -13.449513
 H         -17.054888      -56.985802      -12.247906
 H         -16.769466      -55.838264      -13.397272
