20
 generated by VMD
 C         -11.741142      -38.027981       -7.843544
 N         -11.261304      -37.595184       -6.956561
 H         -12.565389      -41.541622       -8.850202
 H         -13.431377      -40.429310       -7.682316
 C         -13.568333      -41.193810       -8.537686
 C         -14.467892      -42.350014       -8.136977
 C         -14.192528      -40.525784       -9.720117
 C         -15.922949      -41.963253       -7.852166
 C         -15.535721      -39.969635       -9.369226
 C         -16.467964      -41.073135       -8.962730
 H         -14.037068      -42.762337       -7.198482
 H         -14.500693      -43.072544       -8.967476
 H         -13.604421      -39.652599      -10.029616
 H         -14.317923      -41.226643      -10.530893
 H         -15.980405      -41.432320       -6.872203
 H         -16.518936      -42.865646       -7.897691
 H         -16.015978      -39.417385      -10.236524
 H         -15.372565      -39.202526       -8.620140
 H         -17.476160      -40.666397       -8.627731
 H         -16.688368      -41.660305       -9.883206
