20
 generated by VMD
 C         -20.369852      -52.237762       -9.780641
 N         -21.144438      -51.682262      -10.373328
 H         -18.695446      -49.383453      -10.893872
 H         -19.900639      -52.972446       -8.924936
 C         -17.829185      -49.524990      -11.594097
 C         -17.168411      -50.854259      -11.883788
 C         -17.202351      -48.340446      -12.228552
 C         -16.778400      -50.960476      -13.385296
 C         -16.894585      -48.478642      -13.750184
 C         -16.106085      -49.742550      -14.066278
 H         -17.875767      -51.634411      -11.623990
 H         -16.304678      -51.135796      -11.249650
 H         -17.864841      -47.496101      -12.193662
 H         -16.309214      -48.115765      -11.685297
 H         -17.763695      -51.119797      -13.876264
 H         -16.246439      -51.877190      -13.607389
 H         -16.262835      -47.588913      -14.026086
 H         -17.803875      -48.381634      -14.254366
 H         -16.217262      -49.927254      -15.171827
 H         -14.996059      -49.631866      -13.831320
