20
 generated by VMD
 C          -1.794974      -13.003874        0.528534
 N          -1.490420      -13.818832        1.233882
 H          -3.432944      -15.528269        1.778123
 H          -4.199408      -15.161851        0.202545
 C          -4.393551      -15.616872        1.197133
 C          -5.595170      -14.889185        1.730737
 C          -4.589048      -17.107010        0.872713
 C          -6.910440      -15.213574        0.972446
 C          -5.949832      -17.387230        0.195578
 C          -7.132046      -16.678677        0.883102
 H          -5.481154      -13.806508        1.863634
 H          -5.804121      -15.167012        2.810500
 H          -3.816103      -17.385769        0.257240
 H          -4.561182      -17.637928        1.762730
 H          -6.974243      -14.690047        0.016781
 H          -7.664679      -14.707035        1.564141
 H          -6.113155      -18.450865        0.112513
 H          -5.959675      -16.992847       -0.823963
 H          -8.010291      -16.739443        0.209660
 H          -7.410907      -17.163900        1.820346
