20
 generated by VMD
 C         -29.150501      -80.866714      -27.219810
 N         -30.002186      -80.254951      -27.687077
 H         -28.621769      -82.257217      -24.125343
 H         -28.257933      -81.484833      -27.032625
 C         -29.315153      -83.050934      -23.889185
 C         -29.552589      -83.447174      -22.532785
 C         -29.930574      -83.939453      -24.918129
 C         -31.079517      -83.393692      -22.187691
 C         -31.440569      -84.007065      -24.666348
 C         -31.723553      -84.426399      -23.161381
 H         -29.052547      -82.736084      -21.819880
 H         -29.178749      -84.388283      -22.310680
 H         -29.838312      -83.438835      -25.897015
 H         -29.390877      -84.839836      -24.904537
 H         -31.555643      -82.475395      -22.380169
 H         -31.254869      -83.555687      -21.088430
 H         -31.805723      -84.754890      -25.392723
 H         -31.830156      -83.015396      -24.910990
 H         -32.804886      -84.611732      -22.951172
 H         -31.178083      -85.287659      -23.149006
