20
 generated by VMD
 C         -78.420998     -209.461136      -76.947792
 N         -78.375031     -209.093079      -78.091217
 H         -78.968704     -211.142990      -73.704567
 H         -78.497414     -209.759659      -75.903458
 C         -79.048752     -211.779404      -72.826073
 C         -77.775360     -212.167480      -72.163628
 C         -80.211906     -212.667206      -72.867332
 C         -78.197327     -212.293701      -70.658043
 C         -80.512314     -213.156891      -71.487556
 C         -79.258606     -213.302216      -70.612862
 H         -76.948021     -211.479797      -72.217522
 H         -77.353043     -213.053574      -72.629173
 H         -80.997391     -211.991821      -73.136971
 H         -80.099510     -213.573151      -73.512344
 H         -78.589432     -211.400742      -70.121758
 H         -77.264931     -212.481323      -70.140022
 H         -81.174164     -214.113922      -71.569145
 H         -81.097107     -212.416153      -71.110023
 H         -79.594147     -213.370712      -69.583717
 H         -78.941574     -214.279739      -70.822845
