20
 generated by VMD
 C         -69.881729     -197.372238      -65.981918
 N         -69.172264     -196.476959      -65.655396
 H         -71.708275     -193.963852      -64.991478
 H         -70.320381     -198.344070      -66.313065
 C         -72.607338     -193.832687      -65.610428
 C         -72.833572     -192.345642      -66.045120
 C         -72.997849     -194.958527      -66.464226
 C         -73.700058     -192.240723      -67.277031
 C         -74.168465     -194.581665      -67.375244
 C         -73.739220     -193.383286      -68.240295
 H         -71.734253     -192.043991      -66.369255
 H         -73.347107     -191.804459      -65.266945
 H         -72.213760     -195.275253      -67.156639
 H         -73.365799     -195.683990      -65.790611
 H         -73.348663     -191.330139      -67.845360
 H         -74.715630     -192.047913      -66.821396
 H         -75.064926     -194.329742      -66.820351
 H         -74.445518     -195.463074      -68.010147
 H         -72.716560     -193.599731      -68.616310
 H         -74.486748     -193.263916      -69.075050
