20
 generated by VMD
 C         -69.116180     -184.967239      -66.580215
 N         -69.399902     -185.269653      -67.675400
 H         -69.710526     -183.090714      -63.227077
 H         -68.994408     -184.703552      -65.516373
 C         -69.264580     -183.321701      -62.232452
 C         -69.841072     -184.538086      -61.516380
 C         -68.103783     -182.616394      -61.706818
 C         -68.652115     -185.451645      -61.270542
 C         -66.964508     -183.537521      -61.226608
 C         -67.526680     -184.734848      -60.436222
 H         -70.608345     -185.011978      -62.095806
 H         -70.407906     -184.106613      -60.658760
 H         -67.693207     -182.053452      -62.565311
 H         -68.430077     -181.917984      -60.922718
 H         -68.376549     -185.698761      -62.320454
 H         -68.974510     -186.390427      -60.775707
 H         -66.202751     -183.082611      -60.498955
 H         -66.576599     -183.797531      -62.221066
 H         -66.746483     -185.482651      -60.251465
 H         -68.016335     -184.454208      -59.417732
