20
 generated by VMD
 C         -57.728745     -166.156937      -56.444935
 N         -58.241772     -166.961044      -55.724632
 H         -60.600044     -165.157532      -54.709270
 H         -57.209877     -165.461121      -57.108429
 C         -61.557808     -165.475769      -55.118790
 C         -61.777508     -166.718414      -55.849186
 C         -62.408630     -164.319366      -55.424911
 C         -63.253757     -167.081680      -55.990150
 C         -63.883720     -164.717453      -55.693195
 C         -64.061920     -165.964920      -56.509716
 H         -61.370022     -167.543808      -55.233601
 H         -61.186577     -166.715622      -56.835075
 H         -62.582672     -163.695877      -54.466579
 H         -61.950455     -163.640060      -56.139973
 H         -63.633011     -167.289795      -54.925961
 H         -63.376171     -168.011047      -56.613071
 H         -64.402435     -163.844681      -56.280743
 H         -64.410431     -164.885452      -54.619511
 H         -65.117874     -166.245270      -56.462574
 H         -63.929985     -165.738861      -57.577339
