20
 generated by VMD
 C         -47.378895     -137.269501      -46.143803
 N         -47.166451     -136.723602      -47.103798
 H         -50.411476     -136.330826      -44.624321
 H         -47.709782     -137.918518      -45.391685
 C         -51.166111     -137.109528      -44.803883
 C         -51.440765     -137.937836      -46.033798
 C         -52.278053     -136.968811      -43.854038
 C         -52.079201     -139.262512      -45.700119
 C         -53.127110     -138.203537      -43.544678
 C         -53.300175     -139.020966      -44.828568
 H         -50.503613     -138.215332      -46.501041
 H         -52.099148     -137.403641      -46.786430
 H         -51.880039     -136.663712      -42.871498
 H         -53.070812     -136.252106      -44.265831
 H         -51.443771     -140.024857      -45.238674
 H         -52.363194     -139.604340      -46.657726
 H         -53.982758     -137.924545      -43.086651
 H         -52.542374     -138.819061      -42.823853
 H         -53.613140     -140.001923      -44.551411
 H         -53.997089     -138.515045      -45.413296
