20
 generated by VMD
 C         -12.579481      -27.845472       -4.651846
 N         -13.133513      -27.850021       -5.622015
 H         -10.941887      -30.782270       -2.962763
 H         -11.077269      -29.194788       -3.733424
 C         -10.348472      -30.013281       -3.402843
 C          -9.628666      -30.667606       -4.587724
 C          -9.355501      -29.416794       -2.449944
 C          -8.684980      -29.707859       -5.274646
 C          -8.446277      -28.365704       -3.158197
 C          -7.739197      -28.992992       -4.409697
 H         -10.368487      -31.107285       -5.349694
 H          -9.110160      -31.543270       -4.231505
 H          -9.834368      -29.053143       -1.563056
 H          -8.691784      -30.219032       -2.086070
 H          -9.289029      -29.046381       -5.927294
 H          -8.046696      -30.296877       -5.955218
 H          -7.629344      -27.933529       -2.470163
 H          -8.963360      -27.457500       -3.480690
 H          -7.327038      -28.171532       -4.955294
 H          -6.966894      -29.762089       -4.101537
