20
 generated by VMD
 C         -29.656124      -91.027603      -25.232576
 N         -28.987217      -91.949768      -24.999292
 H         -32.216465      -90.780449      -26.863081
 H         -30.356153      -90.164742      -25.332878
 C         -33.095154      -90.580109      -27.521723
 C         -34.220951      -91.445244      -27.477777
 C         -33.121365      -89.602753      -28.648813
 C         -35.599247      -90.763695      -27.504501
 C         -34.451599      -88.941200      -28.682695
 C         -35.728252      -89.880661      -28.715559
 H         -34.218105      -92.194847      -26.687193
 H         -34.147919      -92.140335      -28.405003
 H         -32.291088      -88.954521      -28.529074
 H         -32.880043      -90.041382      -29.608311
 H         -35.560986      -90.033234      -26.602444
 H         -36.501030      -91.374649      -27.426912
 H         -34.318428      -88.299774      -29.540670
 H         -34.430840      -88.273903      -27.801956
 H         -36.751270      -89.469536      -28.804386
 H         -35.675919      -90.465042      -29.694954
