20
 generated by VMD
 C         -29.252489      -74.520500      -19.528917
 N         -30.321081      -74.390411      -19.987803
 H         -25.681414      -73.265663      -18.753672
 H         -28.389282      -74.963066      -19.156225
 C         -25.684572      -73.305603      -19.810793
 C         -25.366089      -74.507858      -20.669815
 C         -25.566837      -72.009232      -20.498995
 C         -25.995382      -74.314369      -22.143734
 C         -26.098269      -71.985039      -21.942747
 C         -25.594202      -73.045387      -22.807301
 H         -25.701885      -75.349640      -20.247543
 H         -24.263138      -74.592293      -20.766663
 H         -26.051104      -71.223740      -19.966177
 H         -24.535385      -71.642448      -20.606310
 H         -27.094660      -74.237617      -22.252205
 H         -25.817089      -75.220840      -22.721395
 H         -25.872610      -70.994873      -22.371759
 H         -27.296545      -71.927322      -21.826855
 H         -26.025881      -72.898041      -23.738960
 H         -24.520409      -73.051918      -22.894419
