20
 generated by VMD
 C         -67.985580     -178.820984      -58.163105
 N         -66.951576     -178.360855      -57.847008
 H         -65.542183     -176.017197      -58.507687
 H         -68.973412     -179.093491      -58.435905
 C         -65.172806     -175.757980      -59.542301
 C         -66.097198     -174.712357      -60.116566
 C         -63.705303     -175.804764      -59.838757
 C         -65.420837     -173.364563      -60.115711
 C         -63.121296     -174.425583      -59.679806
 C         -63.952991     -173.436798      -60.546707
 H         -67.006187     -174.666183      -59.386875
 H         -66.499245     -174.983337      -61.055912
 H         -63.415150     -176.546478      -59.013245
 H         -63.577827     -176.271469      -60.825447
 H         -65.461250     -172.795853      -59.193592
 H         -65.897804     -172.544418      -60.628696
 H         -62.142132     -174.227936      -60.017155
 H         -63.071491     -174.219147      -58.586575
 H         -63.509235     -172.364594      -60.494339
 H         -63.983536     -173.799011      -61.579559
