20
 generated by VMD
 C         -49.938526     -143.382858      -44.535984
 N         -49.228786     -143.487610      -45.442963
 H         -51.963776     -141.112289      -45.465034
 H         -50.743908     -143.417770      -43.811401
 C         -52.687439     -141.294861      -46.271011
 C         -52.095596     -141.592972      -47.719852
 C         -54.153889     -141.126724      -46.129929
 C         -53.163895     -142.204163      -48.755974
 C         -54.989426     -141.866348      -47.145874
 C         -54.562645     -141.699829      -48.619015
 H         -51.164463     -142.197449      -47.624451
 H         -51.718369     -140.543884      -48.114468
 H         -54.534340     -141.385849      -45.115067
 H         -54.487797     -139.999283      -46.176922
 H         -53.344883     -143.213013      -48.563309
 H         -52.682682     -142.126038      -49.722088
 H         -56.043011     -141.558853      -47.218243
 H         -54.973145     -142.916855      -46.851322
 H         -55.227226     -142.351700      -49.144245
 H         -54.631405     -140.670609      -48.800915
