20
 generated by VMD
 C         -57.199699     -150.985245      -48.314137
 N         -58.274742     -151.156631      -48.543079
 H         -54.620720     -148.834778      -47.438313
 H         -56.157688     -150.826447      -48.120636
 C         -54.225498     -148.542358      -48.414162
 C         -53.655228     -149.469513      -49.405369
 C         -54.630718     -147.152145      -48.729263
 C         -54.357990     -149.464523      -50.687004
 C         -55.125172     -147.071701      -50.168453
 C         -54.557518     -147.960449      -51.161896
 H         -53.778553     -150.537170      -48.981899
 H         -52.601246     -149.134735      -49.354519
 H         -55.398163     -146.855881      -48.093048
 H         -53.776951     -146.472565      -48.660488
 H         -55.358051     -149.962021      -50.596691
 H         -53.726017     -149.977966      -51.437611
 H         -55.113750     -146.105469      -50.471130
 H         -56.194496     -147.473541      -50.143017
 H         -55.181126     -147.954605      -52.075363
 H         -53.491524     -147.602158      -51.444454
