20
 generated by VMD
 C         -17.863117      -48.436157       -6.981971
 N         -17.343834      -47.626377       -6.399445
 H         -16.413424      -48.681763      -10.379649
 H         -15.762002      -48.983170      -11.893986
 C         -16.334896      -48.210110      -11.367602
 C         -15.553218      -46.872898      -11.377778
 C         -17.635437      -47.876972      -12.068255
 C         -15.445062      -45.961048      -12.660460
 C         -17.426283      -47.186993      -13.444572
 C         -16.796759      -45.799580      -13.297673
 H         -14.571216      -47.162277      -11.012446
 H         -15.903458      -46.260735      -10.518113
 H         -18.142187      -48.864655      -12.227263
 H         -18.299376      -47.240761      -11.441820
 H         -14.791588      -46.436111      -13.400544
 H         -15.045987      -44.985012      -12.395209
 H         -18.403395      -47.000996      -13.951241
 H         -16.858105      -47.761230      -14.098571
 H         -16.672232      -45.400974      -14.284952
 H         -17.455667      -45.187721      -12.672853
