20
 generated by VMD
 C         -25.772446      -71.269676      -17.119890
 N         -25.563969      -71.510155      -16.014351
 H         -24.158703      -69.035744      -18.618481
 H         -26.090961      -71.014389      -18.192596
 C         -24.549448      -69.092049      -19.609425
 C         -23.792986      -70.005653      -20.507772
 C         -25.818396      -68.434654      -19.997301
 C         -24.929096      -70.890297      -21.270966
 C         -26.785406      -69.310509      -20.702745
 C         -26.134699      -70.217644      -21.780249
 H         -23.072138      -70.756302      -19.969748
 H         -23.198238      -69.647751      -21.314007
 H         -26.231779      -68.204025      -18.995405
 H         -25.501862      -67.572632      -20.634720
 H         -25.151869      -71.711494      -20.601713
 H         -24.489391      -71.400192      -22.138311
 H         -27.572346      -68.792892      -21.200878
 H         -27.178493      -69.882339      -19.921213
 H         -26.832111      -71.037460      -22.135134
 H         -25.915531      -69.484268      -22.570312
