20
 generated by VMD
 C         -25.819710      -71.208145      -17.028526
 N         -25.827797      -71.907730      -16.105965
 H         -24.226744      -68.708771      -18.649229
 H         -25.676395      -70.611855      -17.868668
 C         -24.545235      -69.191551      -19.562260
 C         -23.863424      -70.234322      -20.517584
 C         -25.792894      -68.599747      -20.111057
 C         -24.940716      -71.055359      -21.303947
 C         -26.838909      -69.404694      -20.878002
 C         -26.098066      -70.278511      -21.906328
 H         -23.376575      -70.931358      -19.823835
 H         -23.240412      -69.613914      -21.103693
 H         -26.305567      -68.092857      -19.246708
 H         -25.452383      -67.802155      -20.726768
 H         -25.471737      -71.748947      -20.683651
 H         -24.529985      -71.691872      -22.147942
 H         -27.570486      -68.634148      -21.199539
 H         -27.447592      -70.051216      -20.173595
 H         -26.862959      -70.897446      -22.357073
 H         -25.618549      -69.661835      -22.668428
