20
 generated by VMD
 C         -57.441425     -162.348907      -56.223270
 N         -57.152363     -162.181244      -57.337460
 H         -59.704136     -165.036667      -55.062428
 H         -57.636082     -162.519745      -55.152302
 C         -60.648098     -164.686172      -54.835617
 C         -60.903923     -164.375916      -53.355740
 C         -61.735310     -164.592789      -55.837231
 C         -62.058460     -163.399261      -53.012634
 C         -62.812958     -163.605911      -55.441284
 C         -63.239517     -163.790405      -53.958672
 H         -60.045666     -163.933899      -52.895859
 H         -61.023693     -165.259354      -52.823792
 H         -61.215019     -164.237762      -56.704578
 H         -62.266579     -165.576279      -56.123539
 H         -61.754307     -162.398499      -53.386414
 H         -62.294651     -163.270981      -51.951618
 H         -63.656532     -163.743225      -56.100384
 H         -62.447079     -162.609528      -55.698658
 H         -64.054321     -163.079971      -53.811359
 H         -63.559883     -164.819748      -53.879906
