20
 generated by VMD
 C         -77.360565     -202.950317      -69.371796
 N         -77.791855     -203.794907      -68.724792
 H         -75.773216     -202.106598      -67.625351
 H         -76.914948     -202.263824      -70.118385
 C         -75.002380     -201.506866      -68.182892
 C         -75.132660     -200.107376      -68.489601
 C         -73.965263     -202.387207      -68.878525
 C         -74.663223     -199.673233      -69.899002
 C         -73.157196     -201.523712      -69.979179
 C         -74.089294     -200.778595      -70.862335
 H         -74.714813     -199.459579      -67.730835
 H         -76.273483     -199.960434      -68.499908
 H         -73.284721     -202.954712      -68.137657
 H         -74.489395     -203.199982      -69.454628
 H         -73.814201     -199.007156      -69.843231
 H         -75.506378     -199.317368      -70.431206
 H         -72.700890     -202.218079      -70.685478
 H         -72.504471     -200.869583      -69.365387
 H         -73.636269     -200.254379      -71.667099
 H         -74.991547     -201.419724      -71.230995
