20
 generated by VMD
 C         -51.391876     -130.015671      -45.062202
 N         -51.725849     -129.339706      -45.903172
 H         -48.381504     -129.953598      -43.327034
 H         -51.041088     -130.703217      -44.280380
 C         -48.063835     -129.931473      -42.334484
 C         -47.884762     -131.325226      -41.706532
 C         -47.395664     -128.831116      -41.579411
 C         -46.503796     -131.601791      -41.010914
 C         -46.037430     -129.149384      -41.037571
 C         -46.078773     -130.417160      -40.180912
 H         -48.186642     -132.091217      -42.473064
 H         -48.591446     -131.421127      -40.886662
 H         -47.351475     -128.039963      -42.294556
 H         -48.181469     -128.622452      -40.751923
 H         -45.929218     -131.914352      -41.857750
 H         -46.726238     -132.454712      -40.337021
 H         -45.792671     -128.339218      -40.373371
 H         -45.221329     -129.179260      -41.764351
 H         -45.044418     -130.630844      -39.854404
 H         -46.654278     -130.327530      -39.273243
