20
 generated by VMD
 C          -1.021290      -10.211875        1.168032
 N          -1.825555       -9.742140        0.503196
 H          -3.213919      -12.223812        1.164899
 H          -4.047576      -12.093453        2.702027
 C          -3.887208      -12.746442        1.860502
 C          -3.131073      -14.001899        2.302736
 C          -5.198856      -13.220530        1.140081
 C          -4.025409      -14.796940        3.314582
 C          -6.101676      -14.108506        1.992245
 C          -5.334854      -15.260057        2.663771
 H          -2.313524      -13.739232        2.892196
 H          -2.869543      -14.646265        1.511267
 H          -5.764374      -12.302711        0.723752
 H          -4.881430      -13.806557        0.226222
 H          -4.176514      -14.179911        4.201363
 H          -3.504690      -15.713579        3.675914
 H          -6.852883      -14.552788        1.332983
 H          -6.634569      -13.552551        2.773107
 H          -5.969251      -15.853288        3.353691
 H          -5.054108      -16.010693        1.837426
