20
 generated by VMD
 C         -21.058186      -52.188499       -9.659827
 N         -21.374815      -52.557140      -10.742974
 H         -19.386063      -50.079399      -11.853827
 H         -20.967854      -52.227936       -8.559527
 C         -18.426779      -50.203236      -12.318282
 C         -17.868382      -51.500328      -12.730711
 C         -17.514786      -49.050339      -12.352194
 C         -16.913097      -51.295559      -13.957920
 C         -16.287367      -49.026787      -13.341453
 C         -15.737471      -50.393948      -13.627112
 H         -18.708088      -52.158516      -12.980749
 H         -17.345224      -52.050507      -11.941175
 H         -18.132139      -48.230732      -12.696276
 H         -17.071701      -48.896858      -11.337280
 H         -17.549572      -50.843979      -14.769526
 H         -16.565462      -52.261368      -14.322754
 H         -15.569572      -48.294163      -13.128532
 H         -16.767948      -48.690269      -14.309210
 H         -15.133184      -50.363888      -14.551382
 H         -15.075775      -50.846909      -12.853721
