20
 generated by VMD
 C          -2.590543      -17.994467        2.622316
 N          -1.980264      -17.159338        2.212306
 H          -5.257438      -18.434137        1.070995
 H          -5.222830      -19.490828       -0.326965
 C          -5.808949      -18.671371        0.117386
 C          -5.839044      -17.531511       -0.850229
 C          -7.246135      -19.176054        0.464431
 C          -6.706632      -17.815527       -2.142220
 C          -7.934552      -19.441105       -0.912374
 C          -8.084117      -18.274519       -1.768670
 H          -4.879769      -17.282801       -1.300493
 H          -6.184967      -16.614487       -0.367148
 H          -7.192173      -20.090052        1.010442
 H          -7.721565      -18.559303        1.118099
 H          -6.160417      -18.453522       -2.801564
 H          -6.785180      -16.876972       -2.699152
 H          -8.935013      -19.885956       -0.646569
 H          -7.444974      -20.262846       -1.500561
 H          -8.653459      -18.567757       -2.657040
 H          -8.659845      -17.442234       -1.324336
