20
 generated by VMD
 C         -38.722584      -98.991768      -27.330589
 N         -37.853271      -99.331451      -26.639221
 H         -37.228409      -97.223808      -30.204983
 H         -39.502914      -98.508049      -27.954279
 C         -36.252853      -97.045998      -30.543398
 C         -35.617073      -97.540733      -31.810848
 C         -35.307026      -96.604828      -29.503723
 C         -34.261787      -96.997643      -32.211670
 C         -34.341953      -95.592896      -30.051920
 C         -33.428818      -96.242455      -31.113995
 H         -36.390808      -97.331642      -32.603939
 H         -35.585896      -98.623344      -31.775398
 H         -36.011433      -96.171829      -28.740526
 H         -34.761608      -97.479950      -29.116741
 H         -34.544807      -96.236076      -33.024746
 H         -33.708199      -97.853485      -32.586510
 H         -33.784061      -95.027771      -29.282370
 H         -34.951458      -94.959503      -30.684233
 H         -32.804138      -95.600380      -31.677322
 H         -32.769463      -96.851166      -30.391388
