20
 generated by VMD
 C         -37.737816      -98.678650      -27.473991
 N         -37.631027      -98.433563      -26.342684
 H         -36.799503      -96.380341      -29.616989
 H         -37.916187      -98.772057      -28.596964
 C         -35.761261      -96.659737      -29.717079
 C         -35.365715      -97.358566      -31.048412
 C         -34.645954      -95.746254      -29.095798
 C         -34.916607      -96.319160      -32.045113
 C         -34.177349      -94.759026      -30.205669
 C         -33.742874      -95.590668      -31.394491
 H         -36.048336      -98.093719      -31.446001
 H         -34.446285      -97.996895      -30.828754
 H         -35.136993      -95.162117      -28.316374
 H         -33.888882      -96.396996      -28.650841
 H         -35.603058      -95.533684      -32.231964
 H         -34.521461      -96.703377      -32.986835
 H         -33.406837      -94.077606      -29.800230
 H         -34.938591      -94.105705      -30.468863
 H         -33.348206      -94.966202      -32.145390
 H         -32.867069      -96.304565      -30.899195
