20
 generated by VMD
 C         -67.517921     -180.051682      -58.285782
 N         -68.432716     -180.061676      -59.021217
 H         -67.094643     -176.768936      -60.173920
 H         -66.592735     -180.041870      -57.668438
 C         -66.292862     -176.106079      -60.108788
 C         -66.042534     -175.261307      -61.311771
 C         -65.224541     -176.705765      -59.361736
 C         -64.810768     -174.410172      -61.281391
 C         -63.972099     -175.787369      -59.238686
 C         -63.603588     -174.996460      -60.537460
 H         -66.973785     -174.744934      -61.368916
 H         -66.028961     -175.822281      -62.262215
 H         -65.674553     -177.081635      -58.359230
 H         -64.915413     -177.606674      -59.921589
 H         -64.974022     -173.409058      -60.834354
 H         -64.509354     -174.286072      -62.374325
 H         -63.098835     -176.261612      -58.840649
 H         -64.295792     -175.053833      -58.446220
 H         -62.789848     -174.333923      -60.224026
 H         -63.218754     -175.748474      -61.199829
