20
 generated by VMD
 C          -4.793585      -21.047293        2.031152
 N          -5.230624      -20.241335        2.667273
 H          -5.059345      -18.724592       -0.642612
 H          -5.655467      -20.315804       -0.124322
 C          -5.829447      -19.457947       -0.812153
 C          -5.575131      -19.969130       -2.258908
 C          -7.246602      -18.933889       -0.549017
 C          -6.736742      -20.854546       -2.784826
 C          -8.286597      -19.768978       -1.199557
 C          -8.053487      -20.096004       -2.677544
 H          -4.672962      -20.513983       -2.317136
 H          -5.538226      -19.056517       -2.923915
 H          -7.341788      -18.912607        0.554217
 H          -7.243844      -17.985868       -1.076044
 H          -6.680145      -21.822203       -2.234788
 H          -6.607909      -21.128124       -3.895487
 H          -9.276294      -19.290359       -1.119946
 H          -8.375059      -20.741835       -0.708743
 H          -8.897828      -20.693661       -2.989386
 H          -7.983275      -19.178816       -3.257382
