20
 generated by VMD
 C         -49.286442     -126.923180      -39.978645
 N         -49.986176     -127.155968      -39.091202
 H         -46.520733     -127.189545      -42.624344
 H         -48.587929     -126.741470      -40.790882
 C         -46.246937     -126.387482      -41.828609
 C         -45.242767     -126.806702      -40.789711
 C         -46.704243     -124.996666      -41.747902
 C         -44.208832     -125.830399      -40.386707
 C         -45.663494     -123.901016      -41.430969
 C         -44.717407     -124.355728      -40.256287
 H         -44.687267     -127.642273      -41.089390
 H         -45.953831     -127.055397      -39.940151
 H         -47.146954     -124.686340      -42.685196
 H         -47.370575     -124.984337      -40.922836
 H         -43.510914     -125.731102      -41.180668
 H         -43.719612     -126.156494      -39.466587
 H         -46.065285     -122.947884      -41.116734
 H         -44.970402     -123.582268      -42.299866
 H         -43.835526     -123.693962      -40.104137
 H         -45.196224     -124.384430      -39.250290
