20
 generated by VMD
 C         -50.036739     -144.401047      -44.346973
 N         -49.308704     -143.848389      -45.002514
 H         -52.583885     -142.480865      -45.715187
 H         -50.736752     -145.055862      -43.890522
 C         -53.033207     -142.157486      -46.644939
 C         -52.316029     -141.993210      -47.942081
 C         -54.314419     -141.494705      -46.372578
 C         -53.224632     -142.525131      -49.016869
 C         -55.336628     -141.927368      -47.582577
 C         -54.592125     -141.842834      -48.992622
 H         -51.451508     -142.541092      -47.813034
 H         -52.187801     -140.953857      -48.201611
 H         -54.769848     -141.850449      -45.490475
 H         -54.137569     -140.434113      -46.478802
 H         -53.444786     -143.675766      -48.945507
 H         -52.603413     -142.358749      -49.945244
 H         -56.331726     -141.492859      -47.531567
 H         -55.539135     -143.030060      -47.458210
 H         -55.230324     -142.196442      -49.832401
 H         -54.548557     -140.741364      -49.104836
