20
 generated by VMD
 C         -11.460529      -27.249334       -1.292676
 N         -12.242686      -26.494549       -1.479729
 H         -10.455967      -26.126431       -3.912862
 H          -9.281310      -25.696362       -5.208793
 C          -9.400331      -26.049566       -4.179499
 C          -8.860836      -27.504387       -4.160203
 C          -8.680629      -25.048098       -3.291442
 C          -7.301791      -27.557285       -4.242993
 C          -7.169695      -25.206720       -3.320452
 C          -6.693527      -26.682524       -3.184058
 H          -9.321454      -28.015112       -5.080413
 H          -9.068184      -27.958815       -3.198112
 H          -8.982238      -24.025127       -3.594709
 H          -9.063347      -25.331512       -2.277346
 H          -7.020579      -27.178982       -5.214540
 H          -6.999156      -28.585224       -4.116075
 H          -6.682190      -24.649937       -2.555212
 H          -6.744692      -24.860939       -4.271297
 H          -5.592607      -26.710814       -3.237789
 H          -6.961388      -27.031364       -2.186188
