20
 generated by VMD
 C         -49.673141     -131.807007      -46.612354
 N         -50.088951     -132.583145      -47.331821
 H         -48.046135     -132.554260      -44.306351
 H         -49.254059     -131.328323      -45.775753
 C         -48.613182     -133.264908      -43.620129
 C         -49.495724     -134.470764      -44.026978
 C         -49.078045     -132.608063      -42.364807
 C         -49.493767     -135.488480      -42.861610
 C         -49.106239     -133.608475      -41.171097
 C         -49.856255     -134.834274      -41.441387
 H         -48.993649     -134.828552      -44.969276
 H         -50.518883     -134.182251      -44.278225
 H         -48.326633     -131.765289      -42.150406
 H         -50.023346     -132.085373      -42.454105
 H         -48.542171     -136.028778      -42.729805
 H         -50.296932     -136.225845      -43.111774
 H         -49.539654     -133.247498      -40.286781
 H         -48.049919     -133.915787      -41.032322
 H         -49.769058     -135.635544      -40.574886
 H         -50.918007     -134.603897      -41.304825
