20
 generated by VMD
 C         -68.588531     -184.896515      -65.971405
 N         -69.587898     -185.516647      -65.988914
 H         -69.769669     -182.743134      -63.225212
 H         -67.719048     -184.289261      -65.937035
 C         -69.258286     -183.663223      -62.889950
 C         -69.995209     -184.904861      -62.696335
 C         -67.812866     -183.505737      -62.507454
 C         -69.069839     -185.942062      -61.970314
 C         -67.478569     -184.169373      -61.182682
 C         -68.386406     -185.307892      -60.730469
 H         -70.439003     -185.386459      -63.565571
 H         -70.829796     -184.631393      -61.975109
 H         -67.222946     -183.986252      -63.262871
 H         -67.570663     -182.442841      -62.536682
 H         -68.453979     -186.450974      -62.716133
 H         -69.598045     -186.744080      -61.429657
 H         -67.533028     -183.567429      -60.266430
 H         -66.442719     -184.323441      -61.290890
 H         -68.018097     -185.997665      -59.948448
 H         -69.154533     -184.965500      -60.215961
