20
 generated by VMD
 C         -46.710636     -124.709854      -37.543709
 N         -46.917473     -124.620224      -36.400257
 H         -44.639320     -122.111824      -37.758785
 H         -46.624626     -124.729408      -38.651325
 C         -44.708759     -122.136444      -38.841057
 C         -43.486889     -122.230064      -39.600346
 C         -45.930069     -121.442581      -39.406487
 C         -43.659706     -122.401985      -41.151352
 C         -46.092136     -121.651230      -40.904846
 C         -44.705978     -121.509972      -41.699333
 H         -43.077126     -123.106148      -39.068085
 H         -42.911377     -121.402824      -39.473122
 H         -46.798782     -121.640114      -38.889927
 H         -45.745438     -120.354141      -39.324509
 H         -43.792042     -123.470490      -41.385509
 H         -42.726254     -122.350784      -41.779537
 H         -46.825043     -121.076591      -41.495975
 H         -46.318272     -122.839798      -41.067440
 H         -44.747787     -121.691902      -42.785824
 H         -44.345867     -120.510300      -41.554901
