20
 generated by VMD
 C         -78.097359     -203.440735      -69.554665
 N         -78.834671     -204.340393      -69.369186
 H         -75.661705     -202.163422      -67.386826
 H         -77.374939     -202.569626      -69.522667
 C         -75.018593     -201.768097      -68.299141
 C         -74.938393     -200.254578      -68.545967
 C         -73.763474     -202.422165      -68.784866
 C         -74.827141     -200.062729      -70.089157
 C         -72.950951     -201.799789      -69.827469
 C         -73.781853     -201.032639      -70.873596
 H         -74.024139     -199.892685      -68.136871
 H         -75.768013     -199.625671      -68.147469
 H         -73.108040     -202.611984      -67.942017
 H         -73.973541     -203.462433      -69.157143
 H         -74.518120     -199.058640      -70.360733
 H         -75.769455     -200.232681      -70.648392
 H         -72.417160     -202.653137      -70.289017
 H         -72.098419     -201.155945      -69.602272
 H         -73.090408     -200.406067      -71.450577
 H         -74.355255     -201.625076      -71.599831
