20
 generated by VMD
 C         -31.634956      -75.721741      -23.854980
 N         -30.989979      -76.177589      -24.698690
 H         -29.528866      -78.586769      -22.262510
 H         -31.841331      -75.317261      -22.953264
 C         -28.502539      -78.185364      -22.047045
 C         -27.608248      -78.283806      -23.149540
 C         -28.065905      -78.095062      -20.654318
 C         -26.366341      -77.474312      -22.915339
 C         -26.752726      -77.330292      -20.531864
 C         -25.744669      -77.696976      -21.567846
 H         -28.148432      -78.161003      -24.240805
 H         -27.309185      -79.401657      -23.219507
 H         -28.807625      -77.704330      -19.995913
 H         -27.885262      -79.060783      -20.222616
 H         -26.648933      -76.416428      -22.934637
 H         -25.730551      -77.559090      -23.789181
 H         -26.444559      -77.392342      -19.463579
 H         -26.911211      -76.292175      -20.789658
 H         -24.880922      -76.942772      -21.423674
 H         -25.546242      -78.740349      -21.396585
