20
 generated by VMD
 C         -11.716499      -37.400604       -7.195912
 N         -11.228602      -37.862438       -8.093318
 H         -12.439857      -40.655964       -8.327275
 H         -13.601542      -40.102283       -7.196064
 C         -13.478640      -40.594887       -8.141207
 C         -14.128446      -41.980042       -7.942892
 C         -14.160423      -39.795986       -9.285645
 C         -15.626049      -41.945728       -7.877055
 C         -15.649982      -39.661804       -8.939689
 C         -16.295540      -41.039158       -8.967649
 H         -13.682482      -42.456734       -7.051500
 H         -13.773917      -42.684666       -8.721501
 H         -13.722310      -38.795322       -9.442307
 H         -14.041835      -40.270435      -10.294230
 H         -16.002155      -41.609615       -6.866860
 H         -16.018764      -42.962193       -7.914497
 H         -16.175787      -38.955597       -9.663082
 H         -15.839403      -39.267365       -7.979875
 H         -17.344517      -40.897079       -8.784441
 H         -16.218946      -41.488953       -9.941101
