20
 generated by VMD
 C         -11.212283      -32.646793       -8.812823
 N         -11.964486      -32.949295       -9.543865
 H         -11.989360      -33.682518       -6.412657
 H         -12.563628      -34.235889       -4.853803
 C         -12.301127      -34.616306       -5.849214
 C         -11.118546      -35.575489       -5.580665
 C         -13.526791      -35.297829       -6.485797
 C         -11.397262      -36.891068       -4.970889
 C         -13.870101      -36.547596       -5.630523
 C         -12.627550      -37.483807       -5.588578
 H         -10.427662      -35.022003       -4.931711
 H         -10.671344      -35.743698       -6.604289
 H         -14.354095      -34.590515       -6.582006
 H         -13.214074      -35.468628       -7.497283
 H         -11.705060      -36.743202       -3.929758
 H         -10.566689      -37.585739       -5.092145
 H         -14.757343      -37.091656       -6.119620
 H         -14.137595      -36.281906       -4.622140
 H         -12.876209      -38.353344       -5.010719
 H         -12.318278      -37.842995       -6.612937
