20
 generated by VMD
 C         -78.393562     -209.498779      -76.976379
 N         -78.436378     -209.054718      -78.023201
 H         -78.800934     -210.977097      -73.588898
 H         -78.453262     -209.864059      -75.989746
 C         -78.972878     -211.699875      -72.823349
 C         -77.763321     -212.153763      -72.107666
 C         -80.188599     -212.617752      -72.838501
 C         -78.132126     -212.260864      -70.744972
 C         -80.527611     -213.147964      -71.499352
 C         -79.307350     -213.333450      -70.579704
 H         -77.086311     -211.366821      -72.274712
 H         -77.428215     -213.115753      -72.458206
 H         -81.089989     -212.134125      -73.270409
 H         -79.954910     -213.411194      -73.572533
 H         -78.601562     -211.257874      -70.578018
 H         -77.348549     -212.426666      -69.988480
 H         -81.069550     -214.091309      -71.472816
 H         -81.196648     -212.529007      -71.023682
 H         -79.635895     -213.251083      -69.553719
 H         -78.836189     -214.334900      -70.710098
