20
 generated by VMD
 C         -10.349679      -33.211948       -9.465261
 N         -11.042136      -32.512806       -8.910556
 H         -11.935579      -36.366665       -7.965259
 H         -12.461107      -35.767105       -6.358583
 C         -12.517854      -36.633095       -7.076004
 C         -11.897749      -37.865444       -6.418469
 C         -13.975509      -36.886982       -7.381873
 C         -12.598314      -38.351505       -5.168039
 C         -14.750341      -37.164547       -6.149693
 C         -14.114975      -38.336864       -5.366518
 H         -10.801690      -37.823048       -6.254086
 H         -12.008750      -38.665062       -7.127111
 H         -14.385941      -36.091770       -8.024529
 H         -14.006077      -37.743431       -8.078590
 H         -12.358312      -37.751236       -4.290285
 H         -12.287416      -39.332958       -4.965624
 H         -15.801523      -37.363159       -6.340747
 H         -14.721651      -36.281517       -5.420928
 H         -14.581161      -38.271656       -4.324430
 H         -14.444341      -39.288330       -5.789428
