20
 generated by VMD
 C         -46.241627     -124.224701      -35.853069
 N         -46.810860     -125.205551      -35.520363
 H         -44.638264     -122.087067      -38.157352
 H         -45.743797     -123.254471      -36.024872
 C         -44.558868     -121.673302      -39.106674
 C         -43.275444     -121.384590      -39.793888
 C         -45.693455     -120.661713      -39.552059
 C         -43.492458     -121.669380      -41.246220
 C         -45.895687     -120.974655      -41.018318
 C         -44.605778     -120.770264      -41.855782
 H         -42.546780     -122.140732      -39.389652
 H         -42.961514     -120.423622      -39.630833
 H         -46.594997     -120.790733      -38.964272
 H         -45.438019     -119.551727      -39.452072
 H         -43.927681     -122.625557      -41.245464
 H         -42.511650     -121.518166      -41.771355
 H         -46.578709     -120.257202      -41.399902
 H         -46.347324     -121.863564      -41.292274
 H         -44.763802     -121.064949      -42.911606
 H         -44.265629     -119.775497      -41.878014
