20
 generated by VMD
 C         -59.734756     -152.045807      -49.694580
 N         -58.699787     -152.432388      -50.190380
 H         -56.416035     -150.651611      -48.356728
 H         -60.768940     -151.767029      -49.357002
 C         -55.753311     -150.548599      -49.247738
 C         -54.859818     -151.623688      -49.668972
 C         -55.273079     -149.200195      -49.256439
 C         -54.274693     -151.158936      -50.984077
 C         -54.854565     -148.716385      -50.540005
 C         -53.794743     -149.645126      -51.088875
 H         -55.291439     -152.598282      -49.614807
 H         -53.963707     -151.726532      -48.935272
 H         -56.185093     -148.598282      -48.981956
 H         -54.555016     -149.131516      -48.459816
 H         -55.015121     -151.296204      -51.809521
 H         -53.452843     -151.752151      -51.322315
 H         -54.527164     -147.680008      -50.346878
 H         -55.809166     -148.795074      -51.113281
 H         -53.615536     -149.364594      -52.196495
 H         -52.857147     -149.551331      -50.547207
