20
 generated by VMD
 C          -3.352941      -17.423735        2.365830
 N          -3.244418      -18.312113        1.696137
 H          -5.472459      -20.037823        0.772578
 H          -5.726652      -20.712593       -0.814799
 C          -5.955831      -19.870058       -0.167145
 C          -5.519181      -18.562496       -0.709546
 C          -7.434971      -19.805012        0.132197
 C          -6.227808      -18.120504       -1.983592
 C          -8.170107      -19.367758       -1.151181
 C          -7.727358      -18.055197       -1.814494
 H          -4.481339      -18.584240       -0.975731
 H          -5.584417      -17.743168        0.076315
 H          -7.749752      -20.728912        0.563218
 H          -7.716142      -19.193062        0.933734
 H          -6.022812      -18.860432       -2.780035
 H          -5.754306      -17.268009       -2.465162
 H          -9.258714      -19.329998       -0.979376
 H          -8.059327      -20.205627       -1.916506
 H          -8.184135      -17.931347       -2.809070
 H          -8.018797      -17.197668       -1.230997
