20
 generated by VMD
 C         -12.600964      -31.133917       -8.366136
 N         -12.120301      -30.358246       -7.694458
 H         -11.651594      -33.962025       -7.647302
 H         -12.588459      -33.342674       -6.266022
 C         -11.807162      -34.028591       -6.558387
 C         -10.563499      -33.520882       -5.871511
 C         -12.220718      -35.458275       -6.112083
 C         -10.663327      -33.555237       -4.375536
 C         -12.295389      -35.451614       -4.538130
 C         -10.929401      -35.039013       -3.893600
 H         -10.452880      -32.441658       -6.128999
 H          -9.743446      -34.132938       -6.278200
 H         -13.202972      -35.714897       -6.572335
 H         -11.446888      -36.144836       -6.450687
 H         -11.541066      -33.033573       -3.984256
 H          -9.705826      -33.220566       -3.896102
 H         -12.610134      -36.512108       -4.143748
 H         -13.022648      -34.736641       -4.218989
 H         -10.937962      -35.060604       -2.776145
 H         -10.156842      -35.732319       -4.220586
