20
 generated by VMD
 C         -28.018005      -73.006607      -18.257744
 N         -28.763218      -73.539139      -17.505102
 H         -24.796925      -71.628082      -18.807493
 H         -27.614891      -72.431374      -19.054062
 C         -25.317354      -71.784599      -19.713226
 C         -24.613018      -72.831032      -20.632513
 C         -25.848484      -70.504982      -20.445187
 C         -25.152596      -72.893822      -21.993183
 C         -26.548067      -70.937378      -21.877747
 C         -25.429781      -71.531624      -22.693352
 H         -24.660341      -73.848213      -20.193598
 H         -23.631037      -72.614655      -20.598051
 H         -26.525179      -69.853928      -19.864801
 H         -24.941931      -69.819412      -20.677645
 H         -25.996464      -73.561760      -22.038877
 H         -24.429461      -73.480057      -22.536707
 H         -27.074203      -70.086113      -22.324638
 H         -27.347239      -71.647873      -21.706459
 H         -25.603594      -71.753021      -23.770731
 H         -24.513681      -70.922890      -22.494061
