20
 generated by VMD
 C         -12.681022      -27.898317       -4.278752
 N         -13.786706      -27.779371       -4.449690
 H         -10.530393      -29.544880       -2.663984
 H         -10.516319      -28.011971       -3.593322
 C          -9.928308      -28.843859       -3.223634
 C          -9.379108      -29.720226       -4.358914
 C          -8.778560      -28.300726       -2.355856
 C          -8.447283      -28.928070       -5.269445
 C          -7.691232      -27.650133       -3.218258
 C          -7.235171      -28.488636       -4.360131
 H         -10.290061      -30.047285       -4.885071
 H          -9.009205      -30.652449       -3.980668
 H          -9.171921      -27.445175       -1.751889
 H          -8.267254      -29.026287       -1.712860
 H          -8.912939      -28.062082       -5.730311
 H          -8.044646      -29.471233       -6.145840
 H          -6.851578      -27.489485       -2.542530
 H          -7.981855      -26.641899       -3.508656
 H          -6.555180      -27.912140       -5.022211
 H          -6.707742      -29.397081       -4.149607
