20
 generated by VMD
 C         -38.779560     -115.655190      -35.431541
 N         -39.347549     -115.341728      -34.473137
 H         -41.353477     -115.506058      -37.016151
 H         -38.065144     -115.773415      -36.185265
 C         -42.475006     -115.669022      -37.243927
 C         -42.927227     -115.521584      -38.714943
 C         -43.466541     -115.422615      -36.096966
 C         -44.269802     -116.203285      -38.898293
 C         -44.708405     -116.287254      -36.374050
 C         -45.247189     -115.806435      -37.782833
 H         -42.192547     -116.090721      -39.383934
 H         -42.991165     -114.468094      -39.107689
 H         -42.955200     -115.957436      -35.226059
 H         -43.573368     -114.329971      -36.122700
 H         -43.990395     -117.258972      -38.890961
 H         -44.745869     -116.063454      -39.916981
 H         -45.372181     -116.028740      -35.473442
 H         -44.448612     -117.438828      -36.363350
 H         -46.197311     -116.124680      -38.057343
 H         -45.404224     -114.594223      -37.844322
