20
 generated by VMD
 C         -61.508762     -155.925934      -54.704712
 N         -60.921482     -155.435532      -53.861431
 H         -58.919582     -155.068375      -51.924149
 H         -62.124466     -156.471924      -55.368023
 C         -57.906826     -155.168976      -51.594559
 C         -57.463161     -154.475830      -50.332096
 C         -56.935043     -155.642776      -52.604572
 C         -56.202431     -155.080200      -49.626942
 C         -55.617706     -156.248306      -51.829899
 C         -55.110168     -155.304153      -50.605999
 H         -58.156750     -154.572403      -49.547184
 H         -57.352097     -153.437027      -50.632675
 H         -57.208008     -156.480072      -53.301601
 H         -56.735775     -154.721436      -53.186752
 H         -56.420105     -156.078186      -49.211891
 H         -55.887531     -154.296478      -48.976402
 H         -54.799831     -156.473114      -52.484127
 H         -56.048042     -157.166748      -51.411308
 H         -54.217796     -155.678833      -50.196323
 H         -54.743958     -154.302567      -51.096977
