20
 generated by VMD
 C          -1.819597      -16.760664        2.870398
 N          -2.204930      -15.915069        2.252085
 H          -4.331105      -15.857638       -0.103402
 H          -4.624786      -17.161379       -1.316482
 C          -5.050443      -16.617712       -0.493969
 C          -6.346736      -15.902843       -0.911300
 C          -5.338652      -17.560204        0.704717
 C          -7.498794      -16.894239       -1.228584
 C          -6.440765      -18.571310        0.382516
 C          -7.678374      -17.913126       -0.139757
 H          -6.255647      -15.208746       -1.715063
 H          -6.613807      -15.292061       -0.003075
 H          -4.326068      -18.100691        0.929613
 H          -5.487115      -16.869059        1.630044
 H          -7.330198      -17.370596       -2.160036
 H          -8.421748      -16.332048       -1.447857
 H          -6.632327      -19.232719        1.222326
 H          -6.064854      -19.227535       -0.454281
 H          -8.486102      -18.619795       -0.422183
 H          -8.051820      -17.360989        0.733750
