20
 generated by VMD
 C         -68.283524     -185.968750      -67.688255
 N         -68.482315     -187.120972      -67.543037
 H         -68.455391     -187.560593      -64.672409
 H         -68.122040     -184.901031      -67.663078
 C         -69.174011     -187.679138      -63.812908
 C         -68.850578     -187.155167      -62.377960
 C         -70.606293     -187.617371      -64.216866
 C         -69.804871     -187.747269      -61.368263
 C         -71.519218     -188.271866      -63.103905
 C         -71.248512     -187.553238      -61.805096
 H         -68.738098     -186.013184      -62.478783
 H         -67.851807     -187.632126      -62.181274
 H         -70.820297     -186.577164      -64.328690
 H         -70.827133     -188.131973      -65.125580
 H         -69.773499     -187.240234      -60.434742
 H         -69.599991     -188.823639      -61.143204
 H         -71.219696     -189.388000      -63.189037
 H         -72.619133     -188.265640      -63.391056
 H         -71.606804     -186.541428      -61.927685
 H         -71.797363     -187.797958      -60.920719
