20
 generated by VMD
 C         -65.199379     -176.052963      -55.859444
 N         -65.096527     -177.196487      -55.671024
 H         -65.013611     -174.631882      -59.358124
 H         -65.293709     -174.986771      -56.094730
 C         -64.505821     -173.648590      -59.319927
 C         -65.262764     -172.676788      -58.515488
 C         -63.793892     -173.200623      -60.554668
 C         -64.574089     -171.240662      -58.588020
 C         -63.052959     -171.880753      -60.442680
 C         -64.054565     -170.888489      -59.979401
 H         -65.437370     -173.014374      -57.382030
 H         -66.169701     -172.479752      -58.982399
 H         -63.112816     -174.033020      -60.711544
 H         -64.624237     -173.168167      -61.420815
 H         -63.709808     -171.225098      -57.961517
 H         -65.230461     -170.499023      -58.148335
 H         -62.811222     -171.584274      -61.459072
 H         -62.182590     -172.027695      -59.765282
 H         -63.649445     -169.881790      -60.099022
 H         -64.900085     -171.018768      -60.732689
