20
 generated by VMD
 C         -38.405525     -112.975197      -36.445641
 N         -37.259491     -112.913719      -36.294163
 H         -41.445343     -114.872604      -34.746613
 H         -39.464493     -113.239479      -36.554596
 C         -42.291965     -114.831848      -35.449440
 C         -42.063889     -114.573273      -36.876217
 C         -43.504295     -114.227188      -34.800735
 C         -43.361259     -115.000732      -37.646549
 C         -44.776108     -114.364731      -35.632774
 C         -44.614716     -114.230576      -37.174156
 H         -41.407345     -115.333351      -37.348202
 H         -41.805359     -113.691338      -37.353134
 H         -43.545330     -114.756737      -33.833874
 H         -43.248260     -113.248604      -34.465351
 H         -43.543007     -116.070694      -37.349098
 H         -43.239128     -114.992569      -38.768810
 H         -45.561115     -113.663406      -35.137714
 H         -45.392101     -115.361076      -35.562042
 H         -45.349949     -114.701790      -37.749603
 H         -44.653271     -113.164413      -37.447857
