20
 generated by VMD
 C         -58.699001     -168.527649      -54.960293
 N         -57.583080     -168.679947      -54.939804
 H         -62.133327     -168.523209      -55.633232
 H         -59.744488     -168.297440      -54.860149
 C         -62.356560     -167.660095      -56.244484
 C         -62.729626     -167.954727      -57.759853
 C         -62.892654     -166.331573      -55.599419
 C         -64.154541     -167.594711      -58.088570
 C         -64.289749     -166.123260      -55.980610
 C         -64.540764     -166.233810      -57.507847
 H         -62.432781     -168.924438      -57.980247
 H         -62.093826     -167.184387      -58.330997
 H         -62.599163     -166.221298      -54.496162
 H         -62.300495     -165.492844      -56.011276
 H         -64.761742     -168.368073      -57.597881
 H         -64.282295     -167.556671      -59.201633
 H         -64.615517     -165.155472      -55.644501
 H         -64.931885     -166.928955      -55.534687
 H         -65.658707     -166.082596      -57.763451
 H         -63.931313     -165.357605      -57.909939
