20
 generated by VMD
 C         -19.279598      -61.481091      -16.397306
 N         -19.913870      -60.548405      -16.342518
 H         -22.003321      -62.928379      -18.256920
 H         -18.677349      -62.461613      -16.219658
 C         -22.991903      -62.927319      -17.825708
 C         -24.069124      -63.505219      -18.779510
 C         -23.025696      -63.180904      -16.371756
 C         -24.725437      -64.805817      -18.228949
 C         -23.591255      -64.574356      -15.943821
 C         -24.895012      -64.744644      -16.737873
 H         -23.597914      -63.627922      -19.783207
 H         -24.924095      -62.724541      -18.864893
 H         -21.944386      -63.153034      -16.066256
 H         -23.509321      -62.427666      -15.679908
 H         -24.281567      -65.770927      -18.608898
 H         -25.817667      -64.686653      -18.618216
 H         -23.905426      -64.576004      -14.925936
 H         -22.901741      -65.387131      -16.169760
 H         -25.353945      -65.636726      -16.399935
 H         -25.417955      -63.843586      -16.346079
