20
 generated by VMD
 C         -31.385668      -77.621178      -26.201180
 N         -31.734062      -78.004074      -27.249115
 H         -29.322149      -78.999458      -23.970121
 H         -31.246998      -77.243187      -25.230175
 C         -28.934950      -79.760368      -23.310177
 C         -27.420109      -79.705750      -23.046282
 C         -29.899111      -80.746628      -22.633978
 C         -26.949753      -80.623672      -21.862434
 C         -29.323895      -81.556511      -21.489683
 C         -27.859394      -81.898697      -21.721407
 H         -27.271198      -78.663811      -22.895311
 H         -26.785614      -80.045876      -23.827549
 H         -30.737535      -80.084267      -22.292942
 H         -30.331598      -81.480782      -23.311033
 H         -27.134413      -80.012154      -20.907841
 H         -25.878452      -80.752434      -21.935604
 H         -30.045582      -82.299232      -21.255846
 H         -29.351303      -80.870842      -20.546459
 H         -27.398281      -82.478546      -20.953201
 H         -27.833214      -82.559494      -22.529299
