20
 generated by VMD
 C         -29.780245      -79.833252      -26.435640
 N         -30.219812      -78.901573      -25.862236
 H         -28.653023      -83.023895      -25.646309
 H         -29.497166      -80.637619      -27.123760
 C         -29.201576      -82.904999      -24.754725
 C         -28.786404      -81.958923      -23.692854
 C         -29.914200      -84.157631      -24.335285
 C         -29.857309      -81.630966      -22.696507
 C         -31.125072      -83.801468      -23.427244
 C         -30.594934      -82.825165      -22.305496
 H         -28.369734      -81.009491      -24.245913
 H         -27.865725      -82.381210      -23.275160
 H         -30.223116      -84.659004      -25.266611
 H         -29.305140      -84.908371      -23.898104
 H         -30.408218      -80.844124      -23.150068
 H         -29.397472      -81.284424      -21.665981
 H         -31.522068      -84.723610      -22.897467
 H         -31.922312      -83.338882      -23.983965
 H         -31.394054      -82.496437      -21.606787
 H         -30.057341      -83.344986      -21.571533
