20
 generated by VMD
 C         -12.041579      -41.595619       -7.488041
 N         -11.616820      -40.761070       -6.881555
 H         -14.201073      -40.795025       -8.233188
 H         -15.288527      -40.151058       -9.520351
 C         -14.903435      -41.054260       -8.974155
 C         -15.972304      -41.777756       -8.198622
 C         -14.316947      -42.025635      -10.012612
 C         -17.021135      -42.160019       -9.214829
 C         -15.379235      -42.565372      -10.939521
 C         -16.485760      -43.203156      -10.177879
 H         -16.413279      -41.151730       -7.408247
 H         -15.621867      -42.712006       -7.653872
 H         -13.465002      -41.592510      -10.574184
 H         -13.828063      -42.952606       -9.477130
 H         -17.507902      -41.249290       -9.616434
 H         -17.904909      -42.606270       -8.682501
 H         -14.818169      -43.346958      -11.571784
 H         -15.736058      -41.789009      -11.544768
 H         -17.243343      -43.492641      -10.896218
 H         -16.146475      -44.026463       -9.527149
