20
 generated by VMD
 C          -9.397230      -24.884453        0.726020
 N         -10.176461      -25.407667        1.308399
 H          -6.759261      -22.989828       -0.674456
 H          -8.229192      -22.694242       -1.509613
 C          -7.193841      -23.045109       -1.643138
 C          -7.343907      -24.432442       -2.293707
 C          -6.428925      -22.103621       -2.543891
 C          -8.064507      -24.264963       -3.623441
 C          -7.117502      -21.939566       -3.869796
 C          -7.411268      -23.257555       -4.559775
 H          -7.741777      -25.141756       -1.623182
 H          -6.339336      -24.800449       -2.515578
 H          -6.273372      -21.103020       -2.075853
 H          -5.466705      -22.601633       -2.684228
 H          -9.069920      -23.842920       -3.409339
 H          -8.243896      -25.218285       -4.077246
 H          -6.518767      -21.305777       -4.538078
 H          -8.063707      -21.453669       -3.692954
 H          -8.058008      -23.021364       -5.479155
 H          -6.429195      -23.678545       -4.833959
