20
 generated by VMD
 C         -52.899387     -146.676682      -44.530624
 N         -51.773556     -146.733627      -44.939445
 H         -54.249535     -146.248825      -47.428020
 H         -53.905293     -146.478867      -44.074970
 C         -54.021130     -145.271500      -47.891598
 C         -52.929031     -145.162628      -48.970409
 C         -54.908405     -144.154526      -47.661751
 C         -53.501205     -144.489517      -50.301044
 C         -55.264774     -143.460464      -48.915073
 C         -54.150051     -143.267639      -49.820686
 H         -52.661999     -146.190552      -49.146095
 H         -52.044235     -144.593338      -48.508423
 H         -55.834373     -144.520706      -47.091030
 H         -54.372734     -143.442963      -47.014580
 H         -54.225105     -145.273529      -50.804104
 H         -52.515423     -144.420731      -50.848656
 H         -55.673981     -142.415054      -48.696526
 H         -56.086540     -143.970367      -49.472637
 H         -54.567169     -142.722397      -50.714260
 H         -53.443085     -142.558380      -49.393639
