20
 generated by VMD
 C         -50.718391     -130.863373      -46.396606
 N         -50.277649     -130.930786      -47.438335
 H         -48.174095     -132.039810      -44.272354
 H         -51.347664     -130.829254      -45.482651
 C         -48.512230     -132.347931      -43.268742
 C         -49.100304     -133.688080      -43.130775
 C         -48.421062     -131.436371      -42.138149
 C         -48.454754     -134.399582      -41.880486
 C         -47.849350     -132.033051      -40.884720
 C         -48.502827     -133.414337      -40.675781
 H         -49.051922     -134.250946      -44.146687
 H         -50.134407     -133.536560      -43.068851
 H         -47.702236     -130.513870      -42.408154
 H         -49.440285     -130.924301      -41.988342
 H         -47.525417     -134.743744      -42.247902
 H         -49.045933     -135.288773      -41.722023
 H         -48.092674     -131.313019      -40.110172
 H         -46.779243     -132.308365      -41.020931
 H         -48.198009     -133.954086      -39.796680
 H         -49.575733     -133.209167      -40.276325
