20
 generated by VMD
 C         -22.271088      -67.471779      -16.185179
 N         -21.151041      -67.174011      -16.142199
 H         -23.718317      -65.713142      -17.989618
 H         -23.362732      -67.718903      -16.070694
 C         -24.480106      -66.140381      -18.617289
 C         -23.929369      -66.635315      -19.959616
 C         -25.828493      -66.374374      -18.275881
 C         -24.498402      -68.064217      -20.218483
 C         -26.380993      -67.757599      -18.838476
 C         -25.966656      -68.067497      -20.244099
 H         -22.929636      -66.761955      -19.729908
 H         -24.158123      -65.773979      -20.653568
 H         -25.827280      -66.410278      -17.161785
 H         -26.542231      -65.626625      -18.396561
 H         -24.154556      -68.819595      -19.420166
 H         -24.024620      -68.425270      -21.143301
 H         -27.500431      -67.837189      -18.839811
 H         -26.067373      -68.561768      -18.159893
 H         -26.283154      -69.059715      -20.624228
 H         -26.306330      -67.300209      -20.901033
