20
 generated by VMD
 C         -23.026831      -54.322426      -15.149291
 N         -23.996248      -53.791561      -15.483150
 H         -19.968227      -54.599083      -15.357133
 H         -22.293598      -54.930164      -14.851027
 C         -19.786701      -55.294441      -14.523257
 C         -19.110891      -54.482632      -13.471728
 C         -19.174913      -56.603191      -15.088223
 C         -18.504442      -55.405144      -12.493176
 C         -18.359215      -57.403938      -14.070462
 C         -17.644558      -56.565331      -12.992824
 H         -19.925377      -53.842823      -13.049087
 H         -18.266354      -53.903801      -13.957573
 H         -19.959011      -57.154278      -15.513566
 H         -18.405243      -56.195393      -15.794608
 H         -19.262405      -55.791782      -11.809435
 H         -17.918058      -54.751446      -11.788445
 H         -17.645819      -58.016205      -14.618874
 H         -19.022352      -58.139668      -13.530851
 H         -17.230370      -57.137333      -12.172772
 H         -16.690775      -56.178459      -13.390007
