20
 generated by VMD
 C         -58.900536     -161.174316      -56.598797
 N         -58.539303     -160.214096      -57.084702
 H         -59.071922     -164.281235      -55.009174
 H         -59.191338     -162.118301      -56.137852
 C         -59.713478     -163.520996      -54.512669
 C         -59.560154     -163.312988      -53.085079
 C         -61.149921     -163.503342      -55.024578
 C         -60.431255     -162.200226      -52.489166
 C         -62.033596     -162.416885      -54.435013
 C         -61.855640     -162.180161      -52.966648
 H         -58.494678     -163.045044      -52.907444
 H         -59.472736     -164.177261      -52.380421
 H         -61.145676     -163.376251      -56.046970
 H         -61.617924     -164.509018      -54.836891
 H         -59.926102     -161.186157      -52.689262
 H         -60.348095     -162.442902      -51.474998
 H         -63.015179     -162.949722      -54.596203
 H         -61.920662     -161.428925      -54.976639
 H         -62.387226     -161.288681      -52.576473
 H         -62.356556     -163.084183      -52.508610
