20
 generated by VMD
 C         -23.382505      -55.114044      -15.023839
 N         -22.712097      -54.860577      -15.907421
 H         -19.836176      -54.295277      -15.515079
 H         -24.200924      -55.252510      -14.265024
 C         -19.498852      -55.175587      -14.861888
 C         -18.928240      -54.899506      -13.499436
 C         -19.106554      -56.591431      -15.457384
 C         -19.185118      -56.069336      -12.481976
 C         -19.387119      -57.699467      -14.444732
 C         -18.723761      -57.389668      -13.119874
 H         -19.312340      -53.952370      -13.112728
 H         -17.861959      -54.769661      -13.607668
 H         -19.743366      -56.869942      -16.370016
 H         -18.059221      -56.535603      -15.749619
 H         -20.264259      -56.080063      -12.236833
 H         -18.637810      -55.930637      -11.578959
 H         -18.962547      -58.647137      -14.855177
 H         -20.463436      -57.853168      -14.271036
 H         -18.878477      -58.269581      -12.459976
 H         -17.667629      -57.435059      -13.279808
