20
 generated by VMD
 C         -40.708729     -100.160263      -30.126434
 N         -40.837143     -100.366600      -28.964630
 H         -37.514244      -99.768997      -30.761454
 H         -40.725285     -100.108177      -31.158260
 C         -36.396126      -99.983055      -30.846243
 C         -36.073704      -99.726089      -32.330803
 C         -35.283463      -99.765007      -29.794338
 C         -35.049801      -98.618484      -32.397423
 C         -34.361023      -98.635490      -30.057413
 C         -33.861290      -98.712006      -31.415028
 H         -36.965603      -99.564308      -32.871017
 H         -35.614639     -100.643974      -32.782196
 H         -35.719463      -99.614914      -28.862532
 H         -34.726139     -100.727654      -29.678755
 H         -35.482468      -97.686943      -32.046635
 H         -34.665962      -98.433449      -33.374565
 H         -33.529442      -98.549500      -29.366367
 H         -34.725479      -97.612709      -29.808153
 H         -33.216045      -97.808929      -31.611834
 H         -33.192169      -99.548714      -31.679132
