20
 generated by VMD
 C          -2.455574      -17.997225        2.489324
 N          -1.843672      -17.069546        2.424497
 H          -5.293109      -18.220388        0.950744
 H          -5.187072      -19.319468       -0.405182
 C          -5.795849      -18.556658        0.064467
 C          -5.881034      -17.309328       -0.870660
 C          -7.222941      -19.041170        0.419249
 C          -6.729742      -17.696899       -2.127192
 C          -7.969364      -19.559622       -0.801338
 C          -8.084368      -18.378359       -1.732432
 H          -4.789594      -17.057167       -1.159033
 H          -6.231185      -16.480202       -0.270420
 H          -7.188502      -19.867914        1.204426
 H          -7.800503      -18.175621        0.962824
 H          -6.119560      -18.381010       -2.776641
 H          -6.928568      -16.840054       -2.758708
 H          -8.944221      -19.886528       -0.455504
 H          -7.542458      -20.406055       -1.274773
 H          -8.657460      -18.705723       -2.587143
 H          -8.649917      -17.579535       -1.231760
