20
 generated by VMD
 C         -12.708504      -30.104229       -8.341626
 N         -13.621537      -30.689999       -8.065804
 H         -11.032480      -30.715536       -5.297595
 H         -10.889944      -31.104195       -3.676281
 C         -10.865753      -31.609280       -4.595393
 C          -9.423439      -32.204819       -4.999060
 C         -12.016155      -32.599052       -4.797443
 C          -9.179218      -33.558460       -4.336163
 C         -11.625843      -33.897865       -4.136269
 C         -10.287755      -34.475525       -4.602067
 H          -8.671347      -31.499910       -4.746400
 H          -9.436765      -32.395504       -6.118647
 H         -12.906154      -32.135372       -4.332134
 H         -12.246979      -32.717762       -5.865670
 H          -8.960816      -33.406174       -3.241792
 H          -8.296161      -34.033077       -4.810796
 H         -12.405580      -34.647499       -4.414752
 H         -11.605383      -33.722038       -3.052923
 H         -10.017021      -35.434830       -4.072377
 H         -10.272428      -34.758816       -5.671602
