20
 generated by VMD
 C         -79.081520     -208.209152      -75.537079
 N         -78.353600     -207.310135      -75.520874
 H         -79.038773     -210.142639      -73.489304
 H         -79.825264     -209.036072      -75.303909
 C         -78.519028     -210.069031      -72.509369
 C         -77.311470     -209.250198      -72.364594
 C         -78.865746     -211.037643      -71.533379
 C         -77.114670     -208.737289      -70.988670
 C         -78.450165     -210.719223      -70.043427
 C         -77.134338     -209.959412      -70.033272
 H         -77.503815     -208.367371      -72.946945
 H         -76.408119     -209.676743      -72.738907
 H         -79.966949     -211.153870      -71.538071
 H         -78.431335     -211.987457      -71.797760
 H         -77.817635     -208.053268      -70.607231
 H         -76.144295     -208.241776      -70.998619
 H         -78.345123     -211.665192      -69.554428
 H         -79.311569     -210.251495      -69.460907
 H         -76.777130     -209.774597      -68.987206
 H         -76.454964     -210.704712      -70.497749
