20
 generated by VMD
 C         -68.506584     -193.647949      -64.753723
 N         -68.432487     -194.516327      -65.475189
 H         -70.909203     -193.175308      -67.633026
 H         -68.853737     -192.848907      -64.198891
 C         -71.757126     -192.839951      -67.071716
 C         -71.621201     -191.483597      -66.326469
 C         -73.036514     -193.540390      -67.095695
 C         -73.025604     -191.042435      -66.046402
 C         -73.982819     -193.391464      -65.949898
 C         -73.845428     -192.028214      -65.310585
 H         -71.141014     -190.788910      -66.973885
 H         -70.830887     -191.747208      -65.504372
 H         -73.535156     -193.142746      -67.960846
 H         -72.905487     -194.611267      -67.399635
 H         -73.514351     -190.700089      -66.993019
 H         -72.978271     -190.042160      -65.623627
 H         -73.681427     -194.017532      -65.108475
 H         -74.944016     -193.819687      -66.142693
 H         -74.796524     -191.719742      -65.139130
 H         -73.482681     -192.073959      -64.205048
