20
 generated by VMD
 C         -40.579365      -99.918785      -29.456484
 N         -40.011379     -100.183029      -28.465446
 H         -37.468243      -99.295662      -30.473791
 H         -41.025249      -99.809441      -30.424667
 C         -36.466099      -99.086884      -30.762665
 C         -35.874905      -99.247299      -32.164444
 C         -35.373955      -99.074623      -29.659588
 C         -34.717194      -98.280510      -32.559238
 C         -34.299343      -98.034943      -29.952162
 C         -33.758533      -98.091858      -31.415068
 H         -36.755367      -99.116951      -32.822701
 H         -35.405869     -100.193573      -32.351273
 H         -35.867008      -98.584602      -28.788216
 H         -35.172607     -100.076241      -29.432810
 H         -35.118267      -97.294762      -32.781437
 H         -34.023701      -98.636292      -33.419277
 H         -33.465305      -98.323448      -29.241810
 H         -34.483124      -97.025864      -29.555998
 H         -33.154259      -97.159569      -31.549486
 H         -33.028957      -98.922241      -31.502287
