20
 generated by VMD
 C         -48.483730     -135.810059      -46.201015
 N         -47.730915     -136.151031      -45.453972
 H         -51.604156     -135.017197      -46.075874
 H         -49.407810     -135.446045      -46.645126
 C         -51.641788     -135.913223      -45.416828
 C         -52.494629     -137.162018      -45.620426
 C         -51.206799     -135.752197      -43.980793
 C         -51.621788     -138.388870      -45.182152
 C         -50.550869     -136.970505      -43.417339
 C         -51.292191     -138.315384      -43.713383
 H         -52.765968     -137.266357      -46.716881
 H         -53.427994     -137.210678      -45.094742
 H         -50.530754     -134.942719      -43.846195
 H         -52.011139     -135.490921      -43.286217
 H         -50.757469     -138.414841      -45.914249
 H         -52.302761     -139.256729      -45.333523
 H         -50.210125     -136.862610      -42.288422
 H         -49.647526     -137.099945      -44.008945
 H         -50.594383     -139.083084      -43.542313
 H         -52.330013     -138.304886      -43.197945
