20
 generated by VMD
 C         -50.736195     -129.806747      -45.268234
 N         -51.025394     -129.450043      -44.171696
 H         -49.263611     -129.119354      -42.137970
 H         -50.537663     -129.880951      -46.350101
 C         -48.308418     -129.291428      -41.817326
 C         -47.989128     -130.612823      -41.363945
 C         -47.428246     -128.181122      -41.372406
 C         -46.445335     -130.957458      -41.340637
 C         -45.920242     -128.457352      -41.266365
 C         -45.650608     -129.874969      -40.583004
 H         -48.576168     -131.354172      -41.892345
 H         -48.305763     -130.744766      -40.290043
 H         -47.531261     -127.458000      -42.200737
 H         -47.946281     -127.840530      -40.426918
 H         -46.230957     -131.004272      -42.435562
 H         -46.286568     -131.833954      -40.657352
 H         -45.515720     -127.681564      -40.608387
 H         -45.302826     -128.358261      -42.261833
 H         -44.620583     -130.056015      -40.389381
 H         -46.047256     -129.646057      -39.579865
