20
 generated by VMD
 C         -19.641388      -60.888180      -17.301744
 N         -19.820328      -59.833698      -17.720150
 H         -23.205675      -60.150562      -16.569441
 H         -19.263783      -61.757877      -16.969099
 C         -23.168991      -61.232487      -16.427427
 C         -23.470284      -62.114639      -17.654715
 C         -23.317549      -61.841530      -15.075240
 C         -22.880552      -63.506203      -17.554583
 C         -23.307823      -63.433231      -15.082789
 C         -23.643665      -64.124863      -16.475994
 H         -22.891069      -61.632141      -18.429056
 H         -24.457933      -62.144516      -17.941673
 H         -22.484648      -61.451080      -14.511501
 H         -24.250624      -61.521412      -14.704710
 H         -21.781239      -63.350739      -17.382425
 H         -23.053108      -64.043182      -18.559637
 H         -23.931108      -63.949039      -14.325361
 H         -22.237183      -63.663368      -14.981870
 H         -23.328108      -65.149605      -16.325409
 H         -24.667089      -63.997681      -16.698412
