20
 generated by VMD
 C         -23.464327      -53.179493      -14.063037
 N         -24.133636      -53.157093      -14.944568
 H         -20.502968      -55.320980      -14.888213
 H         -23.011118      -53.428383      -12.929112
 C         -19.513426      -55.345245      -14.598669
 C         -19.026775      -54.146027      -13.852370
 C         -18.580032      -56.561615      -14.738444
 C         -18.312988      -54.522968      -12.560548
 C         -17.545633      -56.606972      -13.578794
 C         -17.072010      -55.251915      -13.062686
 H         -19.875748      -53.549747      -13.575823
 H         -18.413479      -53.501568      -14.480577
 H         -19.172592      -57.482666      -14.755112
 H         -18.064426      -56.495998      -15.676246
 H         -18.786077      -55.209099      -11.844501
 H         -18.143770      -53.579536      -11.996511
 H         -16.617765      -57.148308      -13.937615
 H         -17.904148      -57.143021      -12.711913
 H         -16.314766      -55.373581      -12.306546
 H         -16.449202      -54.686783      -13.784945
