20
 generated by VMD
 C         -40.956966     -101.108429      -32.835285
 N         -42.031841     -101.482994      -32.749504
 H         -38.453465     -103.159660      -32.548531
 H         -39.867188     -100.916183      -32.942493
 C         -37.581043     -102.765495      -32.030369
 C         -36.297123     -102.817909      -32.800987
 C         -37.494106     -102.784889      -30.520082
 C         -35.284389     -101.847435      -32.341198
 C         -36.133213     -102.168350      -30.045092
 C         -35.000034     -102.303246      -30.940289
 H         -36.558941     -102.429916      -33.835236
 H         -35.907127     -103.859161      -32.853699
 H         -38.390041     -102.337753      -30.166212
 H         -37.476875     -103.883858      -30.181625
 H         -35.544876     -100.826614      -32.363224
 H         -34.374451     -101.872353      -32.997036
 H         -35.605865     -102.696808      -29.188864
 H         -36.264435     -101.149673      -29.775045
 H         -34.114933     -101.811859      -30.583384
 H         -34.636009     -103.339684      -30.987637
