20
 generated by VMD
 C         -38.552780     -112.565048      -35.782047
 N         -38.106323     -112.013756      -36.706261
 H         -40.738865     -114.688660      -35.108971
 H         -38.734097     -113.289619      -35.053226
 C         -41.784840     -114.333130      -35.471863
 C         -41.934025     -114.409882      -36.966194
 C         -42.681496     -113.425438      -34.740646
 C         -43.354977     -114.676704      -37.340229
 C         -44.102875     -113.825188      -35.108513
 C         -44.298119     -113.714722      -36.712139
 H         -41.443501     -115.368118      -37.163071
 H         -41.451118     -113.491051      -37.437943
 H         -42.765553     -113.606239      -33.661831
 H         -42.432919     -112.334305      -34.901608
 H         -43.514793     -115.754082      -37.040619
 H         -43.385296     -114.596420      -38.425926
 H         -44.802307     -113.169167      -34.683651
 H         -44.336834     -114.780930      -34.719234
 H         -45.307045     -114.135750      -36.752773
 H         -44.155315     -112.733231      -37.018154
