20
 generated by VMD
 C         -28.995852      -88.168137      -25.245485
 N         -28.748989      -87.543770      -26.211330
 H         -31.391273      -89.860168      -27.236082
 H         -29.328140      -88.826561      -24.374025
 C         -32.261318      -89.279266      -26.953943
 C         -32.787857      -89.131836      -25.617260
 C         -33.129719      -89.184074      -28.147665
 C         -33.772160      -87.996269      -25.587242
 C         -33.993286      -87.849838      -28.047356
 C         -34.770229      -87.977516      -26.768940
 H         -31.856474      -89.082672      -24.945879
 H         -33.208294      -90.055923      -25.246164
 H         -32.502117      -89.328102      -29.080709
 H         -33.911064      -89.982086      -28.221434
 H         -33.219894      -87.048622      -25.558502
 H         -34.363182      -88.150230      -24.562613
 H         -34.651806      -87.773193      -28.856058
 H         -33.465904      -86.887909      -27.965857
 H         -35.369057      -87.140892      -26.661364
 H         -35.403622      -88.824783      -26.772919
