20
 generated by VMD
 C         -68.562439     -195.568115      -64.707680
 N         -68.663017     -196.690475      -64.968353
 H         -71.146461     -194.229813      -67.416939
 H         -68.765739     -194.581161      -64.491730
 C         -72.060455     -193.896225      -66.947159
 C         -72.166687     -192.431290      -66.742241
 C         -73.274719     -194.580933      -67.529442
 C         -73.549057     -192.000748      -66.255684
 C         -74.643921     -194.040344      -67.129028
 C         -74.685928     -192.520767      -67.059448
 H         -71.942909     -191.984329      -67.737373
 H         -71.404793     -191.984238      -66.184052
 H         -73.308990     -194.596375      -68.554443
 H         -73.233330     -195.549515      -67.239525
 H         -73.709381     -190.910431      -66.336105
 H         -73.521194     -192.204132      -65.137238
 H         -74.903656     -194.393738      -66.095619
 H         -75.399582     -194.457657      -67.775833
 H         -74.781479     -192.167633      -68.047417
 H         -75.755882     -192.235855      -66.646248
