20
 generated by VMD
 C         -20.822737      -52.288998       -9.590563
 N         -21.297094      -52.187401      -10.694331
 H         -19.036631      -49.921116      -11.614458
 H         -20.616676      -52.332817       -8.688177
 C         -18.172825      -49.881855      -12.213428
 C         -17.663015      -51.293259      -12.449922
 C         -17.272930      -48.724827      -12.117271
 C         -16.773930      -51.335564      -13.702701
 C         -16.662598      -48.774002      -13.549734
 C         -15.940460      -50.118214      -13.845490
 H         -18.492962      -52.000324      -12.439721
 H         -16.959225      -51.491867      -11.575086
 H         -17.777637      -47.760250      -11.961177
 H         -16.507425      -48.779690      -11.323936
 H         -17.452942      -51.461082      -14.544727
 H         -16.167639      -52.223057      -13.735214
 H         -15.915108      -47.920692      -13.491275
 H         -17.340412      -48.485176      -14.378620
 H         -15.563855      -50.189289      -14.830743
 H         -15.081760      -50.177006      -13.212132
