20
 generated by VMD
 C          -1.631862      -13.920305        1.294256
 N          -1.866140      -12.839404        1.463922
 H          -3.838174      -17.190565        1.767280
 H          -3.892039      -17.117971       -0.008037
 C          -4.515625      -17.108639        0.912752
 C          -5.162077      -15.753036        1.102748
 C          -5.606297      -18.230198        0.876185
 C          -6.348921      -15.460163        0.213706
 C          -6.843872      -17.962290       -0.003695
 C          -7.415782      -16.591269        0.317870
 H          -4.310355      -15.019951        0.978285
 H          -5.471057      -15.737757        2.131480
 H          -5.246348      -19.238323        0.509532
 H          -5.984874      -18.413555        1.934131
 H          -6.010698      -15.430771       -0.831612
 H          -6.844862      -14.509400        0.361956
 H          -7.623868      -18.716434       -0.034748
 H          -6.466778      -17.933208       -1.001828
 H          -8.322753      -16.418503       -0.252315
 H          -7.696599      -16.581425        1.383064
