20
 generated by VMD
 C         -19.129408      -63.330608      -16.832211
 N         -20.200827      -62.911781      -17.021015
 H         -22.719381      -63.915718      -17.146936
 H         -18.154627      -63.819408      -16.413269
 C         -23.716198      -64.340805      -17.379709
 C         -24.318251      -64.139977      -18.720303
 C         -24.577597      -65.098862      -16.400888
 C         -24.695971      -65.447762      -19.359760
 C         -24.942549      -66.434608      -16.971409
 C         -25.492586      -66.280205      -18.429274
 H         -23.666115      -63.606163      -19.379442
 H         -25.290077      -63.641079      -18.598793
 H         -23.991756      -65.082359      -15.507023
 H         -25.598663      -64.543198      -16.247120
 H         -23.838013      -66.064171      -19.592419
 H         -25.215618      -65.400055      -20.356956
 H         -25.620041      -67.095627      -16.476748
 H         -23.968391      -66.926979      -17.090740
 H         -25.462999      -67.303574      -18.841494
 H         -26.585062      -66.058502      -18.357351
