20
 generated by VMD
 C         -31.731527      -75.820450      -23.984993
 N         -31.063396      -76.247589      -24.816261
 H         -29.598368      -78.501190      -22.254177
 H         -32.070625      -75.369659      -22.955181
 C         -28.534721      -78.177620      -22.069931
 C         -27.590742      -78.291107      -23.193928
 C         -28.174187      -78.104660      -20.685638
 C         -26.298788      -77.535767      -22.917000
 C         -26.791620      -77.569099      -20.464447
 C         -25.752081      -77.914650      -21.549170
 H         -28.086079      -77.923248      -24.051146
 H         -27.428955      -79.281570      -23.471064
 H         -28.904242      -77.401367      -20.116999
 H         -28.250183      -79.066811      -20.183521
 H         -26.353127      -76.474174      -23.224268
 H         -25.530519      -77.935806      -23.652260
 H         -26.356602      -77.952438      -19.616711
 H         -26.941208      -76.485703      -20.397547
 H         -24.901192      -77.225441      -21.413649
 H         -25.436047      -78.937042      -21.557419
