20
 generated by VMD
 C         -74.150505     -200.944946      -65.917389
 N         -73.039200     -200.906723      -66.220581
 H         -76.093262     -198.568085      -67.853340
 H         -75.247131     -201.077560      -65.683914
 C         -75.158531     -198.042816      -68.142799
 C         -74.880722     -196.657959      -67.863022
 C         -74.446335     -198.802765      -69.203239
 C         -73.565132     -196.058426      -68.382324
 C         -73.364731     -198.035568      -69.911690
 C         -72.554497     -197.198685      -68.875221
 H         -74.848373     -196.563950      -66.834831
 H         -75.657906     -195.886795      -68.173309
 H         -74.271744     -199.792831      -68.823990
 H         -75.176231     -198.977081      -69.973854
 H         -72.976273     -195.512863      -67.672951
 H         -73.676308     -195.330887      -69.181824
 H         -73.727425     -197.415283      -70.741188
 H         -72.772903     -198.780838      -70.313744
 H         -72.140038     -197.962784      -68.070358
 H         -71.723755     -196.740219      -69.282967
