20
 generated by VMD
 C         -37.456017      -98.539093      -27.507721
 N         -37.690784      -98.358757      -26.371904
 H         -36.819828      -96.480415      -29.350800
 H         -37.389931      -98.705231      -28.560516
 C         -35.766129      -96.599861      -29.684908
 C         -35.367043      -97.337036      -30.854725
 C         -34.667313      -95.732468      -29.045856
 C         -34.875214      -96.366653      -31.955420
 C         -34.058231      -94.723846      -30.152426
 C         -33.872051      -95.291962      -31.543123
 H         -36.216854      -97.965195      -31.052296
 H         -34.490402      -97.948204      -30.496166
 H         -34.891788      -94.974052      -28.335089
 H         -33.993923      -96.419067      -28.560541
 H         -35.809319      -95.922623      -32.217831
 H         -34.616180      -96.881599      -32.863251
 H         -33.019108      -94.506554      -29.799305
 H         -34.648979      -93.860962      -30.195700
 H         -33.862358      -94.549828      -32.296871
 H         -32.806026      -95.780075      -31.744001
