20
 generated by VMD
 C         -10.604342      -33.269608       -8.693451
 N         -11.424496      -33.582542       -9.422059
 H         -12.970776      -33.773003       -6.063325
 H         -13.046052      -34.667946       -4.610569
 C         -12.920429      -34.808350       -5.663289
 C         -11.520199      -35.414196       -5.913836
 C         -14.101967      -35.584988       -6.281105
 C         -11.469833      -36.931980       -5.492456
 C         -13.982765      -36.974583       -5.690412
 C         -12.693208      -37.670544       -6.075396
 H         -10.770232      -34.846565       -5.393302
 H         -11.247267      -35.406715       -6.978868
 H         -15.103802      -35.281803       -5.976557
 H         -14.144624      -35.601986       -7.385608
 H         -11.427838      -36.967461       -4.383348
 H         -10.538009      -37.294102       -5.967998
 H         -14.846626      -37.548920       -6.189968
 H         -14.131373      -36.975006       -4.649296
 H         -12.754549      -38.695717       -5.845688
 H         -12.637598      -37.661102       -7.183033
