20
 generated by VMD
 C         -10.988815      -33.120323       -8.627994
 N         -10.782678      -33.967396       -9.305514
 H         -12.727865      -34.169304       -6.536068
 H         -13.194472      -34.868813       -4.947099
 C         -12.961893      -35.106174       -5.988770
 C         -11.685755      -35.894230       -6.189060
 C         -14.172819      -35.846321       -6.571988
 C         -11.698813      -37.281948       -5.586174
 C         -14.313124      -37.178581       -5.833263
 C         -13.019881      -37.997646       -5.953671
 H         -10.858168      -35.333366       -5.825153
 H         -11.552008      -36.046581       -7.264063
 H         -15.046445      -35.175720       -6.471869
 H         -14.041863      -35.987202       -7.645905
 H         -11.752254      -37.236320       -4.497208
 H         -10.896832      -37.901104       -5.951283
 H         -15.208058      -37.791008       -6.134082
 H         -14.398806      -36.959602       -4.825827
 H         -12.994611      -38.913639       -5.389366
 H         -12.911120      -38.295273       -7.031400
