20
 generated by VMD
 C          -2.177556       -8.631080       -0.887667
 N          -1.755027       -8.195527        0.069131
 H          -3.184975       -9.553526        2.741475
 H          -1.849310      -10.721724        3.277498
 C          -2.906145      -10.571392        3.188657
 C          -3.554469      -11.484296        2.172823
 C          -3.546294      -10.785136        4.578738
 C          -3.388479      -12.915799        2.574851
 C          -3.455469      -12.228318        5.011539
 C          -3.914347      -13.248774        3.908100
 H          -3.003150      -11.290118        1.274936
 H          -4.624300      -11.254021        2.035388
 H          -3.115115      -10.177876        5.345859
 H          -4.559613      -10.439763        4.589045
 H          -2.310917      -13.071177        2.522569
 H          -3.808722      -13.491146        1.769634
 H          -4.058849      -12.459487        5.917450
 H          -2.410052      -12.530244        5.325602
 H          -3.665244      -14.305009        4.127224
 H          -5.021802      -13.190648        3.934824
