20
 generated by VMD
 C         -70.572235     -196.659760      -65.676628
 N         -69.440491     -196.657104      -66.002136
 H         -73.459648     -195.757217      -64.900566
 H         -71.601845     -196.623428      -65.290855
 C         -73.444756     -195.166977      -65.865028
 C         -72.834023     -193.798294      -65.985909
 C         -74.554405     -195.380692      -66.911087
 C         -72.489914     -193.289124      -67.317047
 C         -73.959145     -195.203247      -68.325462
 C         -73.521538     -193.677750      -68.376404
 H         -71.981476     -193.630569      -65.210098
 H         -73.573799     -193.048447      -65.430580
 H         -74.794510     -196.457199      -66.690292
 H         -75.370506     -194.677628      -66.646812
 H         -71.466362     -193.698517      -67.601837
 H         -72.317085     -192.196564      -67.365585
 H         -74.745369     -195.453690      -69.060135
 H         -73.090927     -195.833206      -68.609985
 H         -73.240456     -193.407990      -69.418533
 H         -74.456230     -193.159470      -68.184883
