20
 generated by VMD
 C         -33.708607      -96.097351      -25.269903
 N         -33.346821      -97.148651      -25.593355
 H         -34.652653      -94.345047      -27.505747
 H         -33.981274      -95.211479      -24.867334
 C         -34.783230      -93.747101      -28.423985
 C         -36.023060      -94.110931      -29.173246
 C         -33.535480      -93.470955      -29.157766
 C         -36.145081      -93.307655      -30.510509
 C         -33.846397      -92.618507      -30.379341
 C         -34.840191      -93.262543      -31.387066
 H         -36.889828      -93.773094      -28.513994
 H         -36.179539      -95.206085      -29.325592
 H         -32.876171      -92.989014      -28.351006
 H         -32.967834      -94.402634      -29.415005
 H         -36.472160      -92.282860      -30.305157
 H         -37.017170      -93.821297      -31.065996
 H         -32.885704      -92.346283      -30.910988
 H         -34.373295      -91.748528      -29.983515
 H         -34.968208      -92.704742      -32.309444
 H         -34.610912      -94.435852      -31.647289
