20
 generated by VMD
 C         -68.665359     -193.943985      -66.583176
 N         -67.714928     -193.777237      -65.914192
 H         -70.133446     -190.921524      -66.079872
 H         -69.302452     -194.049088      -67.437645
 C         -71.156517     -190.983658      -65.810135
 C         -72.210686     -190.338394      -66.555809
 C         -71.449944     -191.447144      -64.390457
 C         -73.450356     -191.275406      -66.683350
 C         -72.932648     -191.375000      -64.065430
 C         -73.780731     -191.901474      -65.275589
 H         -71.859215     -190.075851      -67.511993
 H         -72.645203     -189.335220      -66.138527
 H         -71.141800     -192.470200      -64.185455
 H         -70.834099     -190.856628      -63.661495
 H         -73.202682     -192.111267      -67.315895
 H         -74.293869     -190.667252      -67.021309
 H         -73.411819     -190.393936      -63.798233
 H         -73.171608     -191.966064      -63.201191
 H         -73.845207     -193.056381      -65.354790
 H         -74.807709     -191.776810      -64.864296
