20
 generated by VMD
 C         -70.481567     -197.688263      -64.619682
 N         -69.858391     -197.906097      -65.586418
 H         -73.041283     -196.737930      -66.113808
 H         -71.100433     -197.655563      -63.710613
 C         -73.359505     -195.897903      -66.729553
 C         -73.136154     -194.430313      -66.341446
 C         -74.442741     -196.039825      -67.793549
 C         -72.902100     -193.413879      -67.536354
 C         -74.795197     -194.800461      -68.628128
 C         -73.475349     -194.003067      -68.807976
 H         -72.279144     -194.410477      -65.648590
 H         -73.947029     -194.171921      -65.752975
 H         -74.070290     -196.840698      -68.514565
 H         -75.321953     -196.501205      -67.228859
 H         -71.836075     -193.226822      -67.742096
 H         -73.337746     -192.389374      -67.341370
 H         -75.507156     -194.180725      -68.032867
 H         -75.187912     -195.003540      -69.623695
 H         -72.759361     -194.523682      -69.377106
 H         -73.781166     -193.221252      -69.634041
