20
 generated by VMD
 C         -11.571854      -41.558693       -6.864845
 N         -11.539152      -42.405533       -6.162701
 H         -14.684147      -42.690189       -8.138333
 H         -15.137859      -41.440643       -9.583976
 C         -15.281204      -42.461536       -9.156053
 C         -16.771955      -42.724888       -8.933680
 C         -14.800735      -43.477482      -10.189932
 C         -17.584440      -42.481987      -10.181983
 C         -15.584645      -43.449444      -11.560759
 C         -17.120274      -43.421734      -11.325723
 H         -17.121325      -42.082088       -8.109189
 H         -16.931372      -43.758675       -8.473342
 H         -13.730089      -43.322254      -10.383313
 H         -14.804461      -44.508297       -9.696157
 H         -17.492126      -41.431606      -10.468129
 H         -18.645056      -42.650192      -10.115499
 H         -15.356550      -44.366421      -12.104677
 H         -15.275092      -42.536106      -12.094598
 H         -17.604563      -43.092232      -12.243486
 H         -17.524073      -44.399532      -11.004982
