20
 generated by VMD
 C         -69.363892     -180.339294      -60.079914
 N         -69.009880     -181.399963      -60.440678
 H         -67.337189     -177.472275      -59.653046
 H         -69.770958     -179.426407      -59.617794
 C         -66.366791     -176.974945      -59.896042
 C         -65.996284     -177.047424      -61.392319
 C         -65.248718     -177.033600      -58.835732
 C         -64.853943     -175.989044      -61.577423
 C         -64.188339     -175.960007      -59.214718
 C         -63.734364     -176.180573      -60.617409
 H         -66.905403     -176.872421      -61.974537
 H         -65.735352     -178.091904      -61.659729
 H         -65.611412     -176.892395      -57.773319
 H         -64.774544     -178.058029      -58.897346
 H         -65.297974     -175.019745      -61.544262
 H         -64.428436     -175.889008      -62.600372
 H         -63.239578     -176.214310      -58.715000
 H         -64.525307     -174.904266      -58.924366
 H         -62.935829     -175.450394      -60.934650
 H         -63.216732     -177.212555      -60.785519
