20
 generated by VMD
 C         -21.820007      -52.316170      -11.446198
 N         -21.738565      -52.850460      -10.446518
 H         -20.051508      -51.820362      -13.878218
 H         -21.780930      -51.783970      -12.313400
 C         -18.942478      -51.751080      -13.746698
 C         -17.964327      -51.771072      -14.869040
 C         -18.539328      -51.640179      -12.287427
 C         -16.523912      -51.989098      -14.453015
 C         -17.057821      -51.266167      -12.149231
 C         -16.236004      -52.168388      -12.978148
 H         -18.050823      -50.836624      -15.399842
 H         -18.307560      -52.568726      -15.606228
 H         -19.189899      -50.917530      -11.841952
 H         -18.639231      -52.589535      -11.779904
 H         -15.905774      -51.130646      -14.804820
 H         -16.218449      -52.844009      -15.055162
 H         -16.702795      -51.270023      -11.098565
 H         -16.992332      -50.187206      -12.541118
 H         -15.148555      -52.115452      -12.692776
 H         -16.533796      -53.237690      -12.753412
