20
 generated by VMD
 C         -12.086472      -25.403770       -0.451893
 N         -12.929727      -25.942739        0.050685
 H          -8.972817      -26.760021       -2.192828
 H          -9.379973      -25.942854       -3.716592
 C          -8.564385      -26.219126       -3.012295
 C          -7.485285      -27.016912       -3.825611
 C          -7.865347      -25.015696       -2.411854
 C          -6.896830      -26.162384       -4.963412
 C          -7.317113      -24.141022       -3.600135
 C          -6.241884      -24.992767       -4.302491
 H          -7.976843      -27.906654       -4.296809
 H          -6.771195      -27.542294       -3.169550
 H          -8.584734      -24.397558       -1.809632
 H          -7.097586      -25.234684       -1.697230
 H          -7.566086      -25.841333       -5.782201
 H          -6.144382      -26.766609       -5.473671
 H          -6.827198      -23.269339       -3.197355
 H          -8.128376      -23.864639       -4.298820
 H          -5.869451      -24.358423       -5.118163
 H          -5.436992      -25.177137       -3.620155
