20
 generated by VMD
 C         -69.903397     -196.982819      -65.686028
 N         -68.829025     -196.517761      -65.532150
 H         -71.599747     -194.136810      -65.196114
 H         -70.723763     -197.663849      -65.865669
 C         -72.422340     -193.834015      -65.796341
 C         -72.543480     -192.389771      -66.183311
 C         -72.945717     -194.931534      -66.666031
 C         -73.747421     -192.035934      -67.097939
 C         -74.221367     -194.544128      -67.408981
 C         -74.133041     -193.181641      -67.999046
 H         -71.529785     -192.247238      -66.844124
 H         -72.711525     -191.798599      -65.288651
 H         -72.159706     -195.234070      -67.378479
 H         -73.309410     -195.701401      -66.035477
 H         -73.398148     -191.091919      -67.583710
 H         -74.626984     -191.838348      -66.416458
 H         -75.083092     -194.541809      -66.700676
 H         -74.510452     -195.235825      -68.192238
 H         -73.486862     -193.259720      -68.849907
 H         -75.263252     -193.038940      -68.335899
