20
 generated by VMD
 C         -25.694529      -71.546890      -16.891777
 N         -26.480549      -72.342857      -16.519285
 H         -24.210123      -69.269928      -18.660618
 H         -24.881062      -71.010094      -17.246296
 C         -24.719015      -69.538010      -19.589001
 C         -23.999077      -70.560127      -20.376680
 C         -25.810146      -68.665108      -20.336935
 C         -25.061502      -71.351326      -21.206553
 C         -26.838060      -69.532738      -21.230728
 C         -26.049084      -70.514900      -22.088064
 H         -23.547482      -71.381302      -19.873096
 H         -23.393471      -70.136345      -21.125864
 H         -26.429981      -68.027557      -19.694551
 H         -25.296209      -68.068657      -20.995821
 H         -25.589401      -71.853340      -20.406679
 H         -24.421682      -72.168747      -21.650297
 H         -27.551662      -68.896889      -21.762196
 H         -27.542393      -70.134506      -20.684210
 H         -26.782070      -71.178802      -22.634865
 H         -25.324337      -70.020187      -22.758778
