20
 generated by VMD
 C         -63.476536     -174.722885      -55.893875
 N         -62.374275     -174.604340      -56.165714
 H         -65.578575     -173.382050      -57.620171
 H         -64.522461     -174.927933      -55.690113
 C         -65.145889     -172.555252      -58.195004
 C         -65.409851     -171.057129      -57.905331
 C         -64.583267     -172.704926      -59.683430
 C         -64.080269     -170.142715      -58.107952
 C         -63.436752     -171.688477      -60.072525
 C         -63.642658     -170.302948      -59.571709
 H         -65.778122     -170.901611      -56.771111
 H         -66.119453     -170.606979      -58.474380
 H         -64.209892     -173.756516      -59.932083
 H         -65.464149     -172.598206      -60.431499
 H         -63.369751     -170.516464      -57.482792
 H         -64.248589     -169.132706      -57.882607
 H         -63.230881     -171.817307      -61.118927
 H         -62.512318     -172.042953      -59.596348
 H         -62.646961     -169.819717      -59.639912
 H         -64.234909     -169.792801      -60.268433
