20
 generated by VMD
 C         -21.961857      -67.169670      -16.638382
 N         -21.032196      -66.910683      -16.014296
 H         -23.979300      -64.989281      -17.908302
 H         -23.018850      -67.518181      -17.008783
 C         -24.495121      -65.721519      -18.591928
 C         -23.896290      -66.291039      -19.800674
 C         -25.890457      -66.159920      -18.165815
 C         -24.403118      -67.768776      -20.112694
 C         -26.181963      -67.721947      -18.505470
 C         -25.940464      -68.027626      -19.936710
 H         -22.844845      -66.474060      -19.342398
 H         -23.895672      -65.554146      -20.660446
 H         -26.032801      -66.183899      -17.106148
 H         -26.583359      -65.427589      -18.458164
 H         -23.788021      -68.371407      -19.417103
 H         -24.103788      -68.062004      -21.119831
 H         -27.237638      -67.825798      -18.183731
 H         -25.620321      -68.451195      -17.939438
 H         -26.112501      -69.055939      -20.228655
 H         -26.456026      -67.409622      -20.668661
