20
 generated by VMD
 C         -30.051077      -92.176125      -25.645424
 N         -29.254686      -92.315308      -24.806326
 H         -32.395233      -89.952423      -26.474724
 H         -30.920681      -92.148140      -26.319786
 C         -33.126575      -90.191467      -27.311533
 C         -34.130737      -91.390182      -27.256027
 C         -33.316753      -89.324486      -28.508667
 C         -35.490604      -91.129089      -27.735149
 C         -34.711781      -89.273949      -29.175262
 C         -35.568676      -90.531281      -29.137333
 H         -34.054150      -91.801392      -26.245171
 H         -33.596268      -92.079697      -27.865286
 H         -33.099972      -88.190804      -28.407995
 H         -32.564705      -89.606255      -29.316011
 H         -35.928329      -90.401115      -27.033594
 H         -36.229652      -91.980301      -27.756084
 H         -34.555317      -88.915817      -30.209251
 H         -35.317539      -88.555611      -28.588991
 H         -36.612137      -90.458832      -29.217932
 H         -35.204494      -91.191605      -29.872488
