20
 generated by VMD
 C         -13.834673      -43.645622       -6.728253
 N         -13.352763      -43.790089       -5.726799
 H         -15.104308      -45.093742       -8.935580
 H         -14.329025      -43.963558      -10.171721
 C         -15.214835      -44.504646       -9.888282
 C         -16.340599      -43.534302       -9.627683
 C         -15.535095      -45.485836      -11.011013
 C         -16.894356      -42.835732      -10.907716
 C         -15.983337      -44.752224      -12.285884
 C         -17.230642      -43.879654      -12.001793
 H         -16.045183      -42.734726       -8.882560
 H         -17.160534      -44.176807       -9.208882
 H         -14.614953      -46.046906      -11.183469
 H         -16.405468      -46.046722      -10.608685
 H         -16.157932      -42.112904      -11.260333
 H         -17.813978      -42.284534      -10.634902
 H         -16.408764      -45.486687      -13.061169
 H         -15.161054      -44.191265      -12.741765
 H         -17.596525      -43.500961      -12.928229
 H         -18.018166      -44.508224      -11.649528
