20
 generated by VMD
 C         -11.892531      -39.389477       -6.417783
 N         -11.277194      -39.088058       -7.280544
 H         -12.835442      -41.267410       -9.091037
 H         -14.067907      -39.968372       -8.761877
 C         -13.874502      -40.972179       -9.026758
 C         -14.500894      -41.895103       -7.976641
 C         -14.509784      -41.214996      -10.364222
 C         -16.067650      -41.823189       -8.015244
 C         -15.985980      -40.953236      -10.362313
 C         -16.700727      -41.837772       -9.366810
 H         -14.172248      -41.480228       -6.999629
 H         -14.219468      -42.911686       -8.163249
 H         -13.953109      -40.542271      -11.082747
 H         -14.342491      -42.249207      -10.596503
 H         -16.361225      -40.860413       -7.581833
 H         -16.404572      -42.719925       -7.458985
 H         -16.416832      -41.029137      -11.320375
 H         -16.104332      -39.828106      -10.100824
 H         -17.809917      -41.670986       -9.278887
 H         -16.688061      -42.840305       -9.819565
