20
 generated by VMD
 C         -13.644927      -43.087105       -6.157317
 N         -12.886016      -42.885609       -6.972427
 H         -14.709850      -44.578148       -8.719469
 H         -14.393910      -43.203728       -9.902417
 C         -15.120078      -44.035538       -9.598815
 C         -16.467548      -43.463367       -9.166167
 C         -15.196067      -44.934299      -10.825527
 C         -17.039173      -42.687382      -10.326796
 C         -15.690363      -44.211174      -12.034310
 C         -16.960634      -43.418793      -11.633894
 H         -16.273869      -42.786247       -8.333786
 H         -17.200241      -44.184704       -8.707693
 H         -14.184801      -45.321575      -10.990451
 H         -15.873347      -45.801201      -10.569452
 H         -16.533390      -41.730511      -10.387245
 H         -18.077641      -42.439465      -10.155303
 H         -15.812741      -44.899624      -12.828886
 H         -14.922989      -43.418484      -12.374311
 H         -17.203167      -42.653339      -12.357136
 H         -17.779123      -44.180286      -11.677970
