20
 generated by VMD
 C         -47.921993     -125.140923      -38.946117
 N         -47.366299     -126.063469      -38.591270
 H         -45.772579     -123.184258      -37.887245
 H         -48.340973     -124.111626      -39.049828
 C         -45.404266     -123.135864      -38.856682
 C         -44.254868     -123.950790      -39.326809
 C         -45.576908     -121.890282      -39.728455
 C         -44.531727     -124.381874      -40.860458
 C         -45.898212     -122.240089      -41.139553
 C         -44.796921     -123.186630      -41.712257
 H         -44.273289     -124.833679      -38.652058
 H         -43.260464     -123.554634      -39.249771
 H         -46.334118     -121.336052      -39.214790
 H         -44.668766     -121.315445      -39.714825
 H         -45.227539     -125.244347      -41.063206
 H         -43.544327     -124.601189      -41.249008
 H         -45.958416     -121.323784      -41.835445
 H         -46.927235     -122.740715      -41.139767
 H         -45.216125     -123.531090      -42.638390
 H         -43.859722     -122.683182      -41.989830
