20
 generated by VMD
 C         -78.661568     -210.148270      -76.493126
 N         -77.627769     -210.334976      -76.936455
 H         -79.620056     -212.030106      -74.654922
 H         -79.606773     -209.877090      -76.049866
 C         -79.530945     -212.317642      -73.574577
 C         -78.218620     -212.409042      -72.882683
 C         -80.789772     -213.091537      -73.136208
 C         -78.350212     -212.705826      -71.389854
 C         -80.820183     -213.468399      -71.626900
 C         -79.433350     -213.878342      -71.178116
 H         -77.550186     -211.527405      -73.028694
 H         -77.629021     -213.209900      -73.411591
 H         -81.691551     -212.539749      -73.300278
 H         -80.760445     -214.105209      -73.739754
 H         -78.627846     -211.763138      -70.887093
 H         -77.352722     -212.905655      -71.054115
 H         -81.331879     -214.394638      -71.765640
 H         -81.481331     -212.823013      -70.997688
 H         -79.474159     -214.235153      -70.128792
 H         -79.216240     -214.645065      -71.854980
