20
 generated by VMD
 C         -69.317215     -195.897552      -64.925072
 N         -68.550041     -196.742203      -65.233879
 H         -72.161758     -194.306030      -65.419472
 H         -69.734886     -194.977158      -64.662125
 C         -72.153122     -193.961411      -66.475159
 C         -72.143974     -192.432373      -66.661057
 C         -73.043068     -194.702103      -67.481003
 C         -73.603111     -191.911865      -66.522232
 C         -74.465996     -194.274399      -67.150070
 C         -74.683174     -192.750061      -67.332718
 H         -71.801628     -192.326553      -67.713516
 H         -71.653481     -191.957275      -65.875076
 H         -72.874130     -194.392197      -68.462540
 H         -72.895668     -195.693130      -67.330147
 H         -73.680305     -190.810959      -66.755127
 H         -73.826408     -192.060867      -65.400276
 H         -74.659302     -194.546265      -66.067223
 H         -75.161789     -194.844009      -67.731293
 H         -74.514305     -192.420044      -68.337410
 H         -75.733826     -192.350342      -66.921806
