20
 generated by VMD
 C         -33.706455      -96.158836      -25.240410
 N         -33.214653      -97.162064      -25.457621
 H         -34.781796      -93.827896      -27.368395
 H         -34.119564      -95.119080      -24.962246
 C         -34.803314      -93.707901      -28.446066
 C         -36.025135      -94.027878      -29.226357
 C         -33.506866      -93.432961      -29.186153
 C         -36.208141      -93.268188      -30.542477
 C         -33.802216      -92.561523      -30.401249
 C         -34.898720      -93.266449      -31.258310
 H         -36.912449      -93.952850      -28.570366
 H         -35.931435      -95.049614      -29.506205
 H         -32.748104      -92.884918      -28.604950
 H         -33.095566      -94.404221      -29.442720
 H         -36.535263      -92.229950      -30.298216
 H         -37.030121      -93.660522      -31.097624
 H         -32.853039      -92.430328      -31.026060
 H         -34.012180      -91.563728      -30.116871
 H         -35.090050      -92.600845      -32.256626
 H         -34.526558      -94.315414      -31.592194
