20
 generated by VMD
 C         -69.034645     -193.190094      -66.540962
 N         -67.891647     -193.510834      -66.571953
 H         -69.916382     -190.220947      -65.382195
 H         -70.100075     -192.956772      -66.589607
 C         -70.918930     -190.596710      -65.376198
 C         -71.792023     -190.723206      -66.590897
 C         -71.463860     -190.991638      -64.052002
 C         -72.943748     -191.790375      -66.467674
 C         -73.048676     -190.847229      -63.985134
 C         -73.683022     -191.756149      -65.088745
 H         -71.230438     -191.004425      -67.578903
 H         -72.239189     -189.793640      -66.802391
 H         -71.032425     -192.023087      -63.776302
 H         -71.101524     -190.350693      -63.239910
 H         -72.418060     -192.797943      -66.547287
 H         -73.739067     -191.597641      -67.247108
 H         -73.427116     -189.810486      -64.139351
 H         -73.462204     -191.259811      -63.005314
 H         -73.727318     -192.727310      -64.671692
 H         -74.711670     -191.574112      -65.339508
