20
 generated by VMD
 C         -28.477386      -74.082138      -18.459036
 N         -29.209742      -73.392952      -17.914782
 H         -25.409094      -72.276176      -18.733440
 H         -27.705788      -74.702057      -18.846497
 C         -25.339579      -72.007370      -19.822870
 C         -24.875862      -73.188606      -20.641932
 C         -25.652700      -70.739861      -20.557608
 C         -25.189137      -73.198288      -22.073883
 C         -26.360226      -71.021339      -21.878973
 C         -25.562170      -71.923767      -22.764380
 H         -25.303499      -74.197113      -20.199598
 H         -23.769041      -73.281487      -20.513252
 H         -26.296860      -70.076263      -20.002691
 H         -24.682581      -70.137436      -20.656939
 H         -25.995188      -73.963097      -22.224047
 H         -24.339651      -73.660568      -22.605989
 H         -26.537985      -70.064674      -22.409132
 H         -27.334902      -71.382126      -21.871626
 H         -26.006477      -72.213730      -23.784832
 H         -24.623150      -71.304382      -22.921293
