20
 generated by VMD
 C         -28.398457      -82.431664      -26.493219
 N         -27.590839      -82.915802      -27.150013
 H         -30.899778      -84.220894      -26.649599
 H         -29.182297      -82.001640      -25.996429
 C         -31.446533      -84.727478      -25.757584
 C         -30.933702      -84.524742      -24.365145
 C         -32.111179      -85.973381      -26.149429
 C         -31.926855      -85.001938      -23.370928
 C         -33.001251      -86.556076      -25.091711
 C         -32.432671      -86.497673      -23.635445
 H         -30.649317      -83.461632      -24.180040
 H         -29.985842      -85.133186      -24.548914
 H         -32.510162      -85.896538      -27.210152
 H         -31.316572      -86.701561      -26.225933
 H         -32.806236      -84.367531      -23.347103
 H         -31.481770      -85.096466      -22.290287
 H         -33.228455      -87.625031      -25.334217
 H         -33.914265      -86.080391      -25.184937
 H         -33.346439      -86.610924      -22.999096
 H         -31.765778      -87.284531      -23.289162
