20
 generated by VMD
 C         -41.035599     -103.190865      -35.632824
 N         -41.229675     -104.325371      -35.437889
 H         -39.236198     -104.239113      -33.485657
 H         -40.604374     -102.230957      -35.753788
 C         -38.655384     -104.993858      -33.054935
 C         -37.246616     -104.821457      -32.873882
 C         -39.233208     -106.358841      -32.825626
 C         -36.842632     -105.366669      -31.546026
 C         -38.787716     -106.857590      -31.432568
 C         -37.237495     -106.797745      -31.203352
 H         -36.893013     -103.755547      -32.956799
 H         -36.617065     -105.446404      -33.563648
 H         -40.250053     -106.321022      -32.791309
 H         -38.984276     -107.112778      -33.623718
 H         -36.946861     -104.551048      -30.830114
 H         -35.750896     -105.384460      -31.456289
 H         -39.135353     -107.863213      -31.242912
 H         -39.333485     -106.256073      -30.636415
 H         -36.721016     -106.986755      -30.216652
 H         -36.801498     -107.483345      -31.880943
