20
 generated by VMD
 C         -69.656754     -185.062363      -66.709633
 N         -69.053253     -184.760391      -67.670670
 H         -69.616135     -183.215591      -63.172131
 H         -70.194046     -185.413223      -65.763908
 C         -69.259285     -183.244751      -62.115360
 C         -69.599869     -184.462204      -61.268608
 C         -68.112350     -182.342743      -61.743221
 C         -68.389755     -185.318100      -60.912430
 C         -66.962685     -183.200485      -61.291420
 C         -67.279434     -184.388885      -60.331074
 H         -70.298164     -185.058517      -61.843624
 H         -70.202461     -184.090485      -60.383556
 H         -67.773666     -181.595856      -62.538479
 H         -68.489723     -181.720215      -60.948322
 H         -67.995239     -185.786407      -61.871490
 H         -68.556175     -186.206345      -60.235203
 H         -66.133698     -182.589233      -60.942581
 H         -66.440964     -183.642899      -62.170147
 H         -66.382828     -185.013428      -60.147930
 H         -67.606796     -184.118073      -59.294495
