20
 generated by VMD
 C         -50.774845     -129.692154      -45.302711
 N         -50.984188     -129.541870      -44.135784
 H         -49.502640     -128.943314      -41.835297
 H         -50.568657     -130.133972      -46.310524
 C         -48.357105     -129.197891      -41.785900
 C         -47.908707     -130.589584      -41.287746
 C         -47.378792     -128.078339      -41.368298
 C         -46.411613     -130.835098      -41.334637
 C         -45.894707     -128.529556      -41.278858
 C         -45.687439     -129.816605      -40.562435
 H         -48.460743     -131.346542      -41.931973
 H         -48.296967     -130.728821      -40.270226
 H         -47.569580     -127.162834      -41.949886
 H         -47.784664     -127.964577      -40.336136
 H         -46.116234     -130.863083      -42.419323
 H         -46.229923     -131.813858      -40.935211
 H         -45.350224     -127.694290      -40.813835
 H         -45.669670     -128.581955      -42.286823
 H         -44.587406     -129.979294      -40.771881
 H         -45.910042     -129.889572      -39.493469
