20
 generated by VMD
 C         -74.874237     -201.859619      -66.413094
 N         -74.321083     -201.166306      -65.641945
 H         -76.242203     -199.122589      -68.948769
 H         -75.611382     -202.472046      -66.951614
 C         -75.289001     -198.655685      -68.913498
 C         -74.971771     -197.432968      -68.230431
 C         -74.405746     -199.265747      -69.967621
 C         -73.524605     -197.086517      -68.037430
 C         -73.229813     -198.416687      -70.258339
 C         -72.577171     -197.871857      -69.006134
 H         -75.396492     -197.441925      -67.265785
 H         -75.477425     -196.614761      -68.879044
 H         -74.092552     -200.214218      -69.588120
 H         -74.924744     -199.652679      -70.873215
 H         -73.159859     -197.368256      -67.048279
 H         -73.366310     -195.972702      -67.966743
 H         -73.484421     -197.636520      -70.975380
 H         -72.501205     -199.094849      -70.648918
 H         -72.147301     -198.732346      -68.570915
 H         -71.682335     -197.137650      -69.296112
