20
 generated by VMD
 C         -39.440620     -107.722496      -37.785313
 N         -39.035435     -106.654320      -37.862728
 H         -39.553513     -108.165413      -34.660255
 H         -39.682922     -108.760216      -37.631889
 C         -39.992470     -109.027916      -34.177502
 C         -39.234055     -110.316620      -33.944283
 C         -41.537540     -109.161598      -34.186665
 C         -39.735229     -111.028595      -32.654774
 C         -41.967842     -109.924202      -32.924793
 C         -41.232105     -111.214249      -32.775188
 H         -38.156288     -110.258797      -33.722240
 H         -39.463120     -111.077408      -34.686344
 H         -41.997868     -108.193893      -34.199501
 H         -41.803181     -109.702545      -35.071095
 H         -39.543041     -110.273079      -31.894871
 H         -39.200947     -112.044876      -32.388096
 H         -43.068352     -110.086540      -32.868179
 H         -41.891541     -109.231613      -32.087997
 H         -41.589653     -111.667435      -31.806959
 H         -41.485107     -111.840973      -33.552700
