20
 generated by VMD
 C         -17.155737      -47.996815       -7.061906
 N         -16.670767      -47.003937       -6.929651
 H         -16.673609      -48.555073      -10.394415
 H         -15.563225      -48.589901      -11.721211
 C         -16.366119      -48.029327      -11.259844
 C         -15.958193      -46.625744      -10.920815
 C         -17.549068      -47.859898      -12.193929
 C         -15.711191      -45.585537      -11.979294
 C         -17.186289      -46.976429      -13.390909
 C         -16.821411      -45.535503      -12.982059
 H         -15.045496      -46.698200      -10.274192
 H         -16.806141      -46.272320      -10.318310
 H         -17.858305      -48.810780      -12.555979
 H         -18.385748      -47.476189      -11.604681
 H         -14.792556      -45.898369      -12.529650
 H         -15.449914      -44.616127      -11.541764
 H         -18.019547      -46.855694      -14.123421
 H         -16.330000      -47.469166      -13.979328
 H         -16.532207      -44.975307      -13.892675
 H         -17.743120      -44.986073      -12.653332
