20
 generated by VMD
 C         -78.318687     -209.683136      -76.998283
 N         -78.663551     -208.878693      -77.829674
 H         -79.043320     -210.663040      -73.306969
 H         -78.132492     -210.344040      -76.212036
 C         -78.899879     -211.656219      -72.960609
 C         -77.760651     -211.975098      -72.012863
 C         -80.039825     -212.533661      -72.928528
 C         -78.154724     -212.228821      -70.623032
 C         -80.389320     -212.917465      -71.476044
 C         -79.244164     -213.294724      -70.583939
 H         -77.019081     -211.122040      -71.949501
 H         -77.119774     -212.770935      -72.424339
 H         -80.889908     -211.966583      -73.332291
 H         -79.827538     -213.475006      -73.438332
 H         -78.550865     -211.346481      -70.152390
 H         -77.240761     -212.428406      -70.050606
 H         -81.252419     -213.639328      -71.578018
 H         -80.930527     -211.990219      -70.992455
 H         -79.657417     -213.304428      -69.556313
 H         -79.031570     -214.343704      -70.673363
