20
 generated by VMD
 C         -78.984283     -204.248444      -70.482826
 N         -79.981819     -204.861435      -70.608734
 H         -76.726082     -203.448486      -68.641464
 H         -78.052292     -203.752533      -70.411598
 C         -75.827820     -203.176666      -69.224060
 C         -75.779938     -202.045074      -70.201256
 C         -74.604385     -203.959595      -68.876137
 C         -74.425583     -201.500290      -70.583076
 C         -73.265770     -203.230820      -69.043022
 C         -73.261063     -202.395523      -70.326820
 H         -76.295479     -201.262039      -69.591003
 H         -76.460159     -202.235382      -71.055878
 H         -74.682831     -204.647888      -68.042076
 H         -74.614754     -204.809158      -69.620148
 H         -74.344154     -200.521271      -70.014519
 H         -74.418999     -201.149826      -71.634583
 H         -72.501236     -203.918686      -68.827713
 H         -73.148911     -202.567764      -68.126244
 H         -72.333405     -201.901535      -70.519043
 H         -73.154144     -203.129761      -71.104912
