20
 generated by VMD
 C         -48.601894     -140.731949      -45.391872
 N         -47.398312     -140.658188      -45.421177
 H         -51.355007     -138.593063      -45.846306
 H         -49.709801     -140.943848      -45.429192
 C         -51.997509     -139.434280      -46.043247
 C         -52.575165     -139.314560      -47.481655
 C         -53.092335     -139.602768      -45.068192
 C         -53.349548     -140.541138      -47.810211
 C         -53.781452     -140.874298      -45.284870
 C         -54.424068     -140.869980      -46.638599
 H         -51.677578     -139.231873      -48.174961
 H         -53.147594     -138.471085      -47.769051
 H         -52.598972     -139.520966      -44.146957
 H         -53.824150     -138.872620      -45.236622
 H         -52.770885     -141.504913      -47.872528
 H         -53.808601     -140.343658      -48.822056
 H         -54.478485     -141.199951      -44.495670
 H         -53.014366     -141.611069      -45.294544
 H         -54.906845     -141.863022      -46.901012
 H         -55.264366     -140.028305      -46.727150
