20
 generated by VMD
 C         -70.214752     -182.874573      -63.745571
 N         -69.700752     -183.085815      -64.788239
 H         -68.714958     -179.974762      -62.260803
 H         -70.761307     -182.686478      -62.781616
 C         -67.903053     -180.319199      -61.589020
 C         -67.722801     -181.843338      -61.368637
 C         -67.046432     -179.397934      -60.733738
 C         -66.334633     -182.289276      -60.974339
 C         -65.618202     -179.936722      -60.603481
 C         -65.610474     -181.347992      -59.916111
 H         -68.081245     -182.241302      -62.359436
 H         -68.453522     -182.191376      -60.662209
 H         -66.885201     -178.429626      -61.270569
 H         -67.281578     -179.333145      -59.727512
 H         -65.825790     -182.283859      -61.844055
 H         -66.430237     -183.255005      -60.571598
 H         -65.144989     -179.169037      -59.950668
 H         -65.066704     -180.060928      -61.544868
 H         -64.462860     -181.504227      -59.867702
 H         -66.048546     -181.404633      -58.946747
