20
 generated by VMD
 C          -1.856840       -8.678392       -0.451229
 N          -2.164952       -7.926301        0.350473
 H          -3.253450       -9.370858        2.687135
 H          -1.879881      -10.464095        2.750434
 C          -2.982606      -10.349504        2.968052
 C          -3.662331      -11.434171        2.204307
 C          -3.245438      -10.510777        4.406260
 C          -3.459872      -12.858974        2.616363
 C          -2.995446      -11.929552        4.952371
 C          -3.749732      -12.969019        4.131231
 H          -3.360565      -11.388980        1.140446
 H          -4.760673      -11.284999        2.278515
 H          -2.723136       -9.748230        5.101398
 H          -4.309132      -10.193995        4.582404
 H          -2.476104      -13.316313        2.481246
 H          -4.173033      -13.566878        2.209570
 H          -3.235828      -11.930475        6.032601
 H          -1.934575      -12.182611        4.945770
 H          -3.472677      -13.965265        4.485005
 H          -4.820453      -12.969887        4.229587
