20
 generated by VMD
 C          -1.629081      -14.096167        1.720847
 N          -1.908680      -13.099695        1.290872
 H          -3.746308      -17.181574        1.369338
 H          -4.245710      -17.062626       -0.410197
 C          -4.569415      -17.083191        0.636665
 C          -5.244956      -15.759240        1.042035
 C          -5.573499      -18.264601        0.954356
 C          -6.439214      -15.499597        0.079787
 C          -6.832798      -18.071928        0.103149
 C          -7.423604      -16.682257        0.192561
 H          -4.606916      -14.918650        0.946157
 H          -5.564106      -15.741210        2.124485
 H          -5.058638      -19.091774        0.557683
 H          -5.843234      -18.225588        1.965147
 H          -6.023484      -15.364496       -0.923477
 H          -6.836666      -14.499272        0.269468
 H          -7.572445      -18.883532        0.285177
 H          -6.536619      -18.139433       -0.974996
 H          -8.247422      -16.581633       -0.552011
 H          -7.933309      -16.697891        1.163107
