20
 generated by VMD
 C         -31.381882      -79.406258      -26.300289
 N         -30.864677      -78.368515      -26.432491
 H         -28.687307      -81.101227      -25.254654
 H         -31.801682      -80.450699      -26.476891
 C         -28.772356      -81.678871      -24.417221
 C         -27.784103      -81.516930      -23.368250
 C         -29.887913      -82.655304      -24.158113
 C         -28.341593      -81.313141      -22.014467
 C         -30.575647      -82.411789      -22.759331
 C         -29.486729      -82.278015      -21.654947
 H         -27.156734      -80.618027      -23.643208
 H         -27.021381      -82.350113      -23.270460
 H         -30.766186      -82.522240      -24.850971
 H         -29.479172      -83.618622      -24.327406
 H         -28.776320      -80.257225      -21.954563
 H         -27.498995      -81.381401      -21.368544
 H         -31.227480      -83.272339      -22.560402
 H         -31.258966      -81.499222      -22.781221
 H         -30.064981      -81.995735      -20.732738
 H         -28.972855      -83.319679      -21.625669
