20
 generated by VMD
 C         -12.637708      -27.381002       -4.716822
 N         -13.521830      -28.054739       -4.650101
 H         -10.673722      -29.887890       -2.544345
 H         -10.583378      -28.550144       -3.664274
 C         -10.007696      -29.333900       -3.179840
 C          -9.474626      -30.089209       -4.421358
 C          -8.830463      -28.757816       -2.300330
 C          -8.607244      -29.173836       -5.268050
 C          -8.005539      -27.747284       -3.231953
 C          -7.420928      -28.544628       -4.386706
 H         -10.301119      -30.296869       -5.078106
 H          -8.908620      -30.979523       -3.977608
 H          -9.166539      -28.204821       -1.422046
 H          -8.172310      -29.594057       -1.959795
 H          -9.159912      -28.305082       -5.659101
 H          -8.207803      -29.769909       -6.069294
 H          -7.150686      -27.322035       -2.689457
 H          -8.755398      -26.954426       -3.576913
 H          -6.825016      -27.958693       -5.086885
 H          -6.715615      -29.343945       -4.074754
