20
 generated by VMD
 C         -69.843956     -196.829651      -65.541359
 N         -68.728806     -196.530594      -65.474701
 H         -71.736084     -194.096786      -65.057831
 H         -70.975121     -196.802719      -65.549759
 C         -72.372704     -193.809586      -65.861107
 C         -72.346855     -192.419067      -66.342491
 C         -72.905899     -194.915497      -66.788033
 C         -73.789597     -192.076035      -66.898712
 C         -74.303406     -194.508926      -67.357658
 C         -74.301453     -193.020721      -67.970398
 H         -71.667191     -192.398636      -67.330917
 H         -72.171165     -191.754150      -65.505539
 H         -72.239563     -194.855499      -67.609596
 H         -73.046936     -195.837189      -66.344872
 H         -73.610184     -191.015060      -67.214195
 H         -74.504120     -192.109970      -66.021950
 H         -75.065598     -194.603088      -66.550758
 H         -74.600204     -195.187866      -68.158112
 H         -73.538620     -193.044037      -68.787697
 H         -75.387779     -192.741226      -68.401543
