20
 generated by VMD
 C         -80.692329     -205.697784      -72.020706
 N         -79.920448     -206.603210      -71.922401
 H         -76.867050     -204.592224      -72.231056
 H         -81.486031     -205.010193      -71.852081
 C         -76.145256     -204.535522      -71.317146
 C         -74.959984     -203.517731      -71.085983
 C         -76.088821     -205.917191      -70.639900
 C         -74.225090     -203.649689      -69.750320
 C         -75.637238     -205.786255      -69.262665
 C         -74.251183     -205.189575      -69.314583
 H         -75.324631     -202.515839      -71.247406
 H         -74.291954     -203.740402      -71.955353
 H         -77.129997     -206.173935      -70.735367
 H         -75.528114     -206.676575      -71.308701
 H         -74.943253     -203.120087      -69.190575
 H         -73.166084     -203.244980      -69.802063
 H         -75.594749     -206.655106      -68.646461
 H         -76.375710     -205.111496      -68.757744
 H         -73.788666     -205.292023      -68.312645
 H         -73.688164     -205.785736      -70.084763
