20
 generated by VMD
 C         -78.871414     -204.161636      -70.427055
 N         -79.860909     -204.709610      -70.535217
 H         -76.642174     -203.473511      -68.471703
 H         -77.865883     -203.772720      -70.102356
 C         -75.781288     -203.250824      -69.194496
 C         -75.776527     -201.923065      -69.938278
 C         -74.495674     -204.014679      -69.022659
 C         -74.523598     -201.530457      -70.702988
 C         -73.399658     -202.938446      -68.962105
 C         -73.196640     -202.396179      -70.340508
 H         -76.105652     -201.102097      -69.276215
 H         -76.544304     -201.858292      -70.739906
 H         -74.483482     -204.544739      -68.079582
 H         -74.311371     -204.584229      -69.961632
 H         -74.270401     -200.442062      -70.534027
 H         -74.723328     -201.680908      -71.791931
 H         -72.466240     -203.359573      -68.601601
 H         -73.680405     -201.983994      -68.419464
 H         -72.348640     -201.799469      -70.416176
 H         -73.281303     -203.168747      -71.066277
