20
 generated by VMD
 C         -53.015568     -146.826462      -45.002853
 N         -52.112808     -147.159348      -44.432339
 H         -54.323772     -146.751923      -47.833649
 H         -53.877430     -146.605362      -45.633469
 C         -54.386711     -145.775513      -48.317680
 C         -53.130711     -145.586914      -49.086914
 C         -55.073555     -144.498444      -47.835197
 C         -53.398335     -144.695816      -50.337990
 C         -55.266747     -143.598434      -48.992538
 C         -54.029762     -143.378555      -49.900177
 H         -52.875797     -146.676498      -49.345814
 H         -52.353558     -145.192764      -48.447285
 H         -56.088650     -144.763580      -47.411499
 H         -54.285912     -144.068665      -47.007484
 H         -53.998009     -145.254272      -51.120258
 H         -52.335983     -144.559082      -50.713924
 H         -55.716618     -142.649811      -48.548870
 H         -56.047886     -144.039383      -49.688705
 H         -54.203487     -142.620850      -50.712582
 H         -53.208172     -142.917526      -49.221790
