20
 generated by VMD
 C         -18.050056      -48.556343       -7.327008
 N         -18.047903      -48.390358       -6.234057
 H         -16.375607      -48.212391      -10.239037
 H         -15.922716      -49.028969      -11.875260
 C         -16.328556      -48.110672      -11.349949
 C         -15.311609      -46.970516      -11.613375
 C         -17.701399      -47.775112      -11.862513
 C         -15.312510      -46.562763      -13.069808
 C         -17.699488      -47.371693      -13.331208
 C         -16.698689      -46.238102      -13.587975
 H         -14.331315      -47.313366      -11.356384
 H         -15.662923      -46.208996      -10.906905
 H         -18.422453      -48.593292      -11.721090
 H         -18.127903      -46.998829      -11.235951
 H         -14.768083      -47.267567      -13.719878
 H         -14.709626      -45.629398      -13.166085
 H         -18.704313      -46.939491      -13.662714
 H         -17.454515      -48.260494      -13.965025
 H         -16.667994      -45.907673      -14.653457
 H         -17.073397      -45.316414      -13.073252
