20
 generated by VMD
 C         -38.673786     -113.471489      -36.100220
 N         -37.550625     -113.704079      -36.025505
 H         -41.195824     -114.598824      -35.228447
 H         -39.764862     -113.420761      -36.142826
 C         -42.151939     -114.522652      -35.787659
 C         -42.201813     -114.547493      -37.272610
 C         -43.505993     -114.167023      -35.128654
 C         -43.516785     -115.171486      -37.892086
 C         -44.688053     -115.000633      -35.684048
 C         -44.790947     -114.700104      -37.193470
 H         -41.289124     -115.059692      -37.684769
 H         -42.228268     -113.449005      -37.723030
 H         -43.522270     -114.202316      -34.019897
 H         -43.609493     -113.060585      -35.351788
 H         -43.450901     -116.262543      -37.919621
 H         -43.559620     -114.808807      -38.956932
 H         -45.520489     -114.607460      -35.049511
 H         -44.772831     -116.099480      -35.635040
 H         -45.543396     -115.310585      -37.591206
 H         -44.928028     -113.579796      -37.297062
