20
 generated by VMD
 C         -19.754351      -50.039989       -9.333247
 N         -19.672909      -51.176983       -9.681260
 H         -16.557877      -48.150066       -9.999659
 H         -20.086449      -49.173607       -9.288525
 C         -16.571817      -48.158104      -11.082047
 C         -15.548880      -49.082790      -11.675137
 C         -17.445467      -47.331154      -11.939786
 C         -16.208279      -49.966206      -12.761680
 C         -17.864273      -48.003891      -13.293928
 C         -16.891712      -49.062252      -13.822534
 H         -15.272696      -49.802940      -10.857368
 H         -14.685719      -48.505905      -12.011343
 H         -18.362926      -47.087208      -11.431762
 H         -16.942142      -46.415310      -12.196921
 H         -16.995985      -50.626320      -12.297668
 H         -15.398910      -50.563438      -13.239914
 H         -18.100349      -47.138393      -14.016469
 H         -18.736866      -48.549953      -13.116429
 H         -17.377430      -49.672344      -14.637576
 H         -16.121183      -48.429817      -14.389826
