20
 generated by VMD
 C         -11.572568      -33.476669       -8.693857
 N         -10.484551      -33.590809       -8.978753
 H         -12.353495      -34.704937       -7.455238
 H         -12.746468      -34.849762       -5.642903
 C         -12.702930      -35.422451       -6.568785
 C         -11.597953      -36.489273       -6.373636
 C         -14.099665      -35.977119       -6.865676
 C         -12.049912      -37.548241       -5.378033
 C         -14.394305      -37.122959       -5.915072
 C         -13.319147      -38.219223       -5.831771
 H         -10.674175      -35.997719       -6.031390
 H         -11.401925      -36.972740       -7.367679
 H         -14.818716      -35.183609       -6.872228
 H         -14.175175      -36.398746       -7.905043
 H         -12.176248      -36.988834       -4.444860
 H         -11.205564      -38.292645       -5.265097
 H         -15.380239      -37.591396       -6.187735
 H         -14.588791      -36.713421       -4.886428
 H         -13.614097      -38.959522       -5.092979
 H         -13.244133      -38.814880       -6.787597
