20
 generated by VMD
 C         -60.818554     -154.947266      -51.564266
 N         -60.771370     -153.989807      -52.255238
 H         -57.747841     -153.652237      -52.935459
 H         -60.715298     -155.833832      -50.935413
 C         -56.948162     -153.766449      -52.191006
 C         -57.379055     -153.992188      -50.835796
 C         -55.549534     -153.145050      -52.447002
 C         -56.265877     -154.400345      -49.888268
 C         -54.386627     -153.488770      -51.414524
 C         -54.930912     -153.422226      -49.992012
 H         -57.982285     -154.834503      -50.809639
 H         -57.964287     -153.196747      -50.424107
 H         -55.276329     -153.374237      -53.501854
 H         -55.831314     -152.072830      -52.319149
 H         -56.066666     -155.437057      -50.186543
 H         -56.554390     -154.221954      -48.800610
 H         -53.578804     -152.818192      -51.489250
 H         -53.954666     -154.509430      -51.735157
 H         -54.262066     -153.811264      -49.233425
 H         -55.226418     -152.393814      -49.935753
