20
 generated by VMD
 C         -30.548841      -93.666992      -25.266342
 N         -29.422401      -93.776878      -25.241423
 H         -33.765331      -92.007942      -26.562794
 H         -31.669415      -93.561813      -25.158827
 C         -34.233231      -91.659851      -27.534433
 C         -35.649223      -92.294228      -27.828815
 C         -33.384750      -91.227066      -28.678638
 C         -36.327576      -91.417519      -28.838440
 C         -34.180004      -90.357719      -29.583344
 C         -35.429050      -91.156677      -30.040495
 H         -36.224270      -92.367050      -27.009291
 H         -35.326756      -93.209274      -28.203712
 H         -32.510925      -90.733910      -28.238901
 H         -33.093136      -92.076828      -29.202950
 H         -36.502464      -90.433632      -28.424501
 H         -37.326233      -91.786613      -29.254784
 H         -33.574844      -90.078033      -30.483070
 H         -34.629131      -89.421646      -29.159531
 H         -36.027390      -90.439484      -30.603600
 H         -34.977196      -91.931793      -30.630184
