20
 generated by VMD
 C         -68.807655     -193.758041      -64.550697
 N         -68.421318     -194.315170      -65.538315
 H         -71.011574     -193.597412      -67.712631
 H         -68.924438     -193.198837      -63.641216
 C         -71.846283     -193.085175      -67.217636
 C         -71.501358     -191.817627      -66.386520
 C         -73.208740     -193.719376      -67.311630
 C         -72.800850     -191.172836      -65.947540
 C         -74.257751     -193.322311      -66.249680
 C         -73.766785     -192.201141      -65.224915
 H         -70.937515     -191.084427      -66.904022
 H         -70.870132     -192.240738      -65.439445
 H         -73.634369     -193.606674      -68.285042
 H         -73.015900     -194.765396      -67.035393
 H         -73.322266     -190.662827      -66.821213
 H         -72.467751     -190.504288      -65.139519
 H         -74.669823     -194.176193      -65.718468
 H         -75.004105     -192.847351      -66.879601
 H         -74.615707     -191.733444      -64.897148
 H         -73.131706     -192.657639      -64.358063
