20
 generated by VMD
 C         -39.481300      -99.124252      -28.166912
 N         -38.760513      -99.965775      -27.821793
 H         -37.518944      -97.833237      -30.712639
 H         -40.001637      -98.328819      -28.675356
 C         -36.371460      -97.947716      -30.753809
 C         -35.655243      -98.554375      -32.072548
 C         -35.627731      -97.659271      -29.511120
 C         -34.527035      -97.635895      -32.372143
 C         -34.343681      -96.816185      -29.924026
 C         -33.594494      -97.320778      -31.169010
 H         -36.395905      -98.726051      -32.876877
 H         -35.390701      -99.551201      -31.730883
 H         -36.145596      -97.094864      -28.759098
 H         -35.455910      -98.629448      -29.051563
 H         -35.085400      -96.735451      -32.617420
 H         -33.923859      -98.012497      -33.184284
 H         -33.654610      -96.847748      -29.150263
 H         -34.552475      -95.753983      -30.161161
 H         -32.873451      -96.559067      -31.457644
 H         -33.070873      -98.295654      -30.997116
