20
 generated by VMD
 C         -10.851994      -33.255032       -8.601447
 N         -11.586090      -33.367340       -9.447167
 H         -12.637121      -33.626972       -5.967201
 H         -12.934091      -34.608868       -4.578385
 C         -12.741210      -34.684700       -5.636707
 C         -11.392347      -35.386600       -5.975663
 C         -13.872469      -35.401512       -6.275346
 C         -11.480808      -36.849228       -5.390268
 C         -13.926172      -36.891396       -5.812723
 C         -12.631698      -37.687897       -5.837080
 H         -10.592958      -34.815926       -5.506507
 H         -11.216667      -35.411648       -7.076918
 H         -14.825946      -34.891125       -6.062639
 H         -13.844572      -35.462757       -7.368340
 H         -11.593626      -36.667187       -4.289092
 H         -10.534552      -37.383251       -5.636361
 H         -14.782774      -37.458481       -6.367695
 H         -14.191771      -36.803173       -4.786292
 H         -12.663296      -38.600891       -5.330845
 H         -12.508951      -37.950516       -6.890496
