20
 generated by VMD
 C         -11.746607      -33.653019       -8.807511
 N         -11.039482      -34.486416       -8.601454
 H         -11.576640      -36.883759       -8.099887
 H         -12.126188      -36.206886       -6.650397
 C         -12.241510      -37.054737       -7.273167
 C         -11.953614      -38.363285       -6.564628
 C         -13.679745      -36.944511       -7.771197
 C         -13.088799      -38.708309       -5.530852
 C         -14.684611      -37.210583       -6.683577
 C         -14.510440      -38.598248       -6.093238
 H         -10.929060      -38.290741       -6.137887
 H         -11.922737      -39.169117       -7.299815
 H         -13.908585      -36.013386       -8.286174
 H         -13.767437      -37.659611       -8.588396
 H         -13.009744      -38.111744       -4.566868
 H         -12.962690      -39.761494       -5.249831
 H         -15.688649      -37.154133       -7.046277
 H         -14.622164      -36.457504       -5.885428
 H         -15.194521      -38.690998       -5.224399
 H         -14.735391      -39.346321       -6.825126
