20
 generated by VMD
 C         -11.139290      -38.533298       -7.408523
 N         -11.792231      -37.748344       -6.982796
 H         -12.623775      -41.705032       -8.998419
 H         -13.488985      -40.596870       -7.962658
 C         -13.630607      -41.302368       -8.734598
 C         -14.538176      -42.385525       -8.133676
 C         -14.260529      -40.688755       -9.981302
 C         -15.903197      -41.825039       -7.798222
 C         -15.682075      -40.210201       -9.702384
 C         -16.619556      -41.262379       -9.048999
 H         -14.031955      -42.824383       -7.238699
 H         -14.577466      -43.267349       -8.795599
 H         -13.641623      -39.789246      -10.294233
 H         -14.178907      -41.348465      -10.882317
 H         -15.732833      -41.041180       -7.071567
 H         -16.582689      -42.539627       -7.261520
 H         -16.162104      -39.936596      -10.599993
 H         -15.563733      -39.326424       -8.985479
 H         -17.556520      -40.780502       -8.854061
 H         -16.726419      -42.073296       -9.759643
