20
 generated by VMD
 C         -12.613555      -28.580616       -5.948186
 N         -13.150546      -27.665018       -5.583938
 H         -11.664102      -31.381266       -3.902237
 H         -11.255368      -29.996195       -4.840989
 C         -10.794854      -30.778894       -4.110595
 C          -9.752598      -31.539606       -4.873684
 C         -10.184022      -30.178238       -2.873425
 C          -8.644817      -30.635443       -5.274282
 C          -8.980791      -29.363655       -3.206367
 C          -7.979291      -30.065044       -4.059005
 H         -10.231586      -32.070236       -5.796901
 H          -9.290246      -32.371029       -4.339367
 H         -10.870055      -29.530859       -2.330888
 H          -9.860715      -30.986891       -2.150329
 H          -9.080308      -29.747938       -5.821759
 H          -7.919492      -31.026562       -6.045325
 H          -8.531994      -28.980152       -2.296928
 H          -9.353300      -28.479628       -3.745033
 H          -7.180093      -29.460146       -4.385700
 H          -7.490010      -30.838966       -3.481390
