20
 generated by VMD
 C         -13.434794      -28.739401       -6.570986
 N         -13.176234      -28.814838       -7.657044
 H         -11.975900      -30.790211       -4.906528
 H         -10.653226      -29.744820       -4.563457
 C         -10.913147      -30.770679       -4.578999
 C         -10.120678      -31.537912       -5.641245
 C         -10.870102      -31.493835       -3.275165
 C          -8.693367      -31.801662       -5.134457
 C          -9.523903      -31.620043       -2.715841
 C          -8.627651      -32.371044       -3.618445
 H         -10.196804      -30.916849       -6.576097
 H         -10.714281      -32.467022       -5.832227
 H         -11.560882      -30.960543       -2.569954
 H         -11.294771      -32.506466       -3.404479
 H          -8.043901      -30.919893       -5.135508
 H          -8.221643      -32.494804       -5.840649
 H          -9.524668      -32.155548       -1.798303
 H          -9.073593      -30.597256       -2.546294
 H          -7.614183      -32.411922       -3.253971
 H          -8.885651      -33.401501       -3.608881
