20
 generated by VMD
 C         -63.425846     -174.529068      -56.538567
 N         -62.542522     -175.211258      -56.262146
 H         -66.496964     -173.210068      -58.192066
 H         -64.318214     -173.965927      -56.809471
 C         -65.616913     -172.569489      -58.537556
 C         -65.778633     -171.044189      -58.425812
 C         -64.686859     -173.031769      -59.708210
 C         -64.416054     -170.451920      -58.164108
 C         -63.306614     -172.341888      -59.661179
 C         -63.212868     -170.801163      -59.130905
 H         -66.531693     -170.937866      -57.631996
 H         -66.255219     -170.722672      -59.372631
 H         -64.627357     -174.144943      -59.808640
 H         -65.207115     -172.732803      -60.669353
 H         -63.991543     -170.721878      -57.120670
 H         -64.460327     -169.309280      -58.213799
 H         -62.835506     -172.505875      -60.618919
 H         -62.638523     -172.887146      -58.964844
 H         -62.227425     -170.501541      -58.692822
 H         -63.311893     -170.079834      -59.976963
