20
 generated by VMD
 C         -15.193027      -46.595543       -6.079581
 N         -15.010187      -47.321434       -5.242766
 H         -15.969454      -45.809620       -9.649951
 H         -14.796334      -45.727077      -10.985883
 C         -15.861317      -45.663647      -10.712141
 C         -16.406427      -44.303276      -11.070454
 C         -16.715685      -46.782978      -11.349813
 C         -16.502939      -44.040863      -12.597621
 C         -16.741982      -46.513203      -12.819712
 C         -17.303442      -45.167606      -13.309020
 H         -15.817447      -43.535336      -10.519967
 H         -17.421232      -44.205578      -10.626012
 H         -16.303764      -47.785564      -11.144861
 H         -17.730225      -46.805317      -10.826257
 H         -15.531301      -43.978477      -13.115121
 H         -16.942144      -43.041386      -12.725588
 H         -17.171669      -47.281185      -13.375299
 H         -15.685566      -46.522648      -13.219161
 H         -17.159779      -45.036461      -14.353023
 H         -18.371504      -45.158764      -13.097792
