20
 generated by VMD
 C         -65.321083     -176.991211      -56.165745
 N         -65.858650     -177.343811      -55.201447
 H         -64.574333     -174.845001      -59.290016
 H         -64.760254     -176.752518      -57.026104
 C         -64.207146     -173.829254      -59.372929
 C         -65.240837     -172.927109      -58.880444
 C         -63.634586     -173.384460      -60.688839
 C         -64.627052     -171.468582      -58.643166
 C         -63.216331     -171.900940      -60.698021
 C         -64.210991     -170.935959      -60.006485
 H         -65.733688     -173.157883      -57.933468
 H         -66.124565     -172.915283      -59.621334
 H         -62.742672     -173.979813      -60.784771
 H         -64.431587     -173.542374      -61.315594
 H         -63.850975     -171.569031      -57.818649
 H         -65.417427     -170.736069      -58.342052
 H         -62.964581     -171.591934      -61.780273
 H         -62.258080     -171.746735      -60.220512
 H         -63.702488     -169.984879      -59.868740
 H         -65.050301     -170.740799      -60.618511
