20
 generated by VMD
 C         -60.930687     -156.035522      -54.430077
 N         -60.754333     -156.180374      -55.529114
 H         -59.288960     -156.171173      -50.908951
 H         -60.966240     -155.807709      -53.384972
 C         -58.360447     -155.818375      -51.342400
 C         -57.486008     -154.748886      -50.649075
 C         -57.707508     -156.606735      -52.412930
 C         -56.259968     -155.276810      -50.028774
 C         -56.467850     -157.224518      -51.696739
 C         -55.540382     -156.201492      -51.016811
 H         -58.049332     -154.296036      -49.842949
 H         -57.279537     -154.002823      -51.521461
 H         -58.195454     -157.487167      -52.732071
 H         -57.483124     -156.001419      -53.347328
 H         -56.468121     -155.988571      -49.132244
 H         -55.843807     -154.463623      -49.490154
 H         -55.980663     -157.835098      -52.451454
 H         -56.721466     -158.005936      -50.856731
 H         -54.694321     -156.669037      -50.413345
 H         -55.133091     -155.623108      -51.849815
