20
 generated by VMD
 C          -9.144523      -23.878429        2.339892
 N          -8.755206      -24.906124        2.544651
 H          -8.251528      -23.381840       -0.977019
 H          -9.060868      -22.648813       -2.293903
 C          -8.030097      -23.028593       -2.005143
 C          -7.648531      -24.157818       -2.974075
 C          -7.084522      -21.773848       -2.114682
 C          -7.476173      -23.647886       -4.449992
 C          -6.943429      -21.308634       -3.558342
 C          -6.508502      -22.454208       -4.520818
 H          -8.379038      -24.960230       -2.943651
 H          -6.610242      -24.603380       -2.780260
 H          -7.359787      -20.948441       -1.488091
 H          -6.111788      -22.186598       -1.808079
 H          -8.420351      -23.204243       -4.797470
 H          -7.008720      -24.440678       -5.069437
 H          -6.201591      -20.531881       -3.651409
 H          -7.924883      -20.953339       -3.857475
 H          -6.430382      -22.135767       -5.549578
 H          -5.497869      -22.754263       -4.213586
