20
 generated by VMD
 C         -60.183205     -156.221069      -55.535149
 N         -60.526653     -155.094574      -55.487877
 H         -59.834503     -157.665756      -52.701012
 H         -59.861366     -157.229568      -55.467857
 C         -58.908340     -157.592941      -52.063046
 C         -58.267654     -156.201263      -52.227718
 C         -58.018982     -158.788116      -51.720013
 C         -57.211082     -156.052063      -51.149094
 C         -56.962048     -158.442017      -50.690495
 C         -56.233650     -157.255005      -51.047363
 H         -59.091774     -155.588715      -52.014767
 H         -57.904289     -156.082840      -53.265488
 H         -58.677620     -159.648758      -51.425537
 H         -57.604252     -159.015427      -52.742779
 H         -57.851032     -155.828125      -50.256428
 H         -56.595383     -155.251999      -51.444931
 H         -56.245605     -159.290344      -50.643494
 H         -57.554329     -158.377213      -49.694393
 H         -55.507362     -157.118622      -50.135742
 H         -55.728886     -157.397903      -51.962784
