20
 generated by VMD
 C         -58.631535     -161.354813      -56.467285
 N         -58.455318     -160.157394      -56.597088
 H         -59.394569     -164.637543      -55.020374
 H         -58.880188     -162.407837      -56.293560
 C         -60.121536     -164.053238      -54.541031
 C         -59.656170     -163.460556      -53.227806
 C         -61.514400     -163.960815      -54.989758
 C         -60.337093     -162.171707      -53.050301
 C         -62.216850     -162.743973      -54.588661
 C         -61.827011     -162.251755      -53.225616
 H         -58.625961     -163.322311      -53.151489
 H         -59.844742     -164.166321      -52.483620
 H         -61.420994     -163.909622      -56.090954
 H         -62.031116     -164.841812      -54.632591
 H         -59.780411     -161.597504      -53.804245
 H         -60.039463     -161.767242      -52.012184
 H         -63.369614     -162.947540      -54.534657
 H         -62.270420     -161.995102      -55.460194
 H         -62.180462     -161.145935      -53.261063
 H         -62.359138     -162.844971      -52.451504
