20
 generated by VMD
 C         -58.647888     -158.897537      -58.169872
 N         -58.840202     -159.660583      -57.285023
 H         -59.069744     -160.596741      -54.736702
 H         -58.458233     -158.148117      -58.932362
 C         -59.435303     -161.245773      -53.994602
 C         -58.752060     -161.496628      -52.636551
 C         -60.728233     -162.000519      -54.245838
 C         -59.576942     -161.532837      -51.382484
 C         -61.639843     -161.784485      -53.086361
 C         -60.975918     -162.242111      -51.725426
 H         -58.050644     -160.639771      -52.544704
 H         -58.160763     -162.363068      -52.727001
 H         -61.210461     -161.698074      -55.202019
 H         -60.511837     -163.059799      -54.398693
 H         -59.562130     -160.436432      -51.041916
 H         -59.042816     -162.288483      -50.795990
 H         -62.629753     -162.195770      -53.161526
 H         -61.852280     -160.730164      -53.043423
 H         -61.639637     -161.930023      -50.882858
 H         -60.725929     -163.277420      -51.873344
