20
 generated by VMD
 C          -9.078096      -23.780094        2.553895
 N          -8.539049      -24.756123        2.684938
 H          -8.414817      -23.339279       -1.157080
 H          -9.125818      -22.677174       -2.595375
 C          -8.231084      -22.980192       -2.148975
 C          -7.614445      -24.083549       -3.089500
 C          -7.183100      -21.818785       -2.073313
 C          -7.366930      -23.546558       -4.489854
 C          -6.911870      -21.249628       -3.463902
 C          -6.435338      -22.310846       -4.463269
 H          -8.295112      -24.998682       -3.186971
 H          -6.758556      -24.520227       -2.553529
 H          -7.595073      -21.031219       -1.410659
 H          -6.211434      -22.169254       -1.715866
 H          -8.292807      -23.445684       -5.011096
 H          -6.914708      -24.334743       -5.116466
 H          -6.124392      -20.535210       -3.269382
 H          -7.752862      -20.699833       -3.898847
 H          -6.414385      -21.768263       -5.430056
 H          -5.400006      -22.728891       -4.188219
