20
 generated by VMD
 C         -38.721550     -115.607002      -35.427914
 N         -39.355492     -115.338898      -34.479755
 H         -41.468300     -115.572113      -37.013912
 H         -38.113888     -115.784737      -36.363354
 C         -42.485146     -115.630638      -37.228439
 C         -42.904633     -115.545250      -38.718819
 C         -43.436710     -115.406143      -36.083076
 C         -44.255257     -116.187897      -38.923893
 C         -44.698544     -116.245171      -36.341606
 C         -45.248131     -115.799583      -37.804909
 H         -42.217213     -116.117668      -39.355209
 H         -42.828930     -114.459732      -38.905895
 H         -43.035248     -115.767174      -35.155483
 H         -43.766178     -114.386261      -35.922829
 H         -44.118492     -117.256294      -38.908108
 H         -44.785789     -115.910263      -39.853737
 H         -45.377827     -116.180550      -35.535801
 H         -44.478367     -117.261597      -36.493320
 H         -46.346138     -116.272385      -37.850140
 H         -45.489929     -114.757286      -37.676926
