20
 generated by VMD
 C         -48.338490     -136.041718      -46.131622
 N         -47.249317     -136.147476      -45.892967
 H         -51.594109     -135.319443      -46.132053
 H         -49.393650     -135.968857      -46.345947
 C         -51.658546     -136.136917      -45.358688
 C         -52.249191     -137.299637      -45.976494
 C         -51.407524     -135.994614      -43.881027
 C         -51.837498     -138.625214      -45.253616
 C         -50.943642     -137.313705      -43.310791
 C         -51.889645     -138.440857      -43.774281
 H         -51.991325     -137.373093      -47.005928
 H         -53.388966     -137.231018      -46.019928
 H         -50.672661     -135.199875      -43.551666
 H         -52.310650     -135.793823      -43.272511
 H         -50.834476     -138.858917      -45.562279
 H         -52.541855     -139.362885      -45.611984
 H         -50.934006     -137.264420      -42.280746
 H         -49.892010     -137.529022      -43.662052
 H         -51.626778     -139.453720      -43.225269
 H         -52.955910     -138.321091      -43.490582
