20
 generated by VMD
 C         -29.265091      -80.176003      -26.725750
 N         -29.922283      -80.175598      -27.704210
 H         -28.561155      -82.349167      -24.806488
 H         -28.826124      -80.066971      -25.713945
 C         -29.269331      -82.965347      -24.178082
 C         -29.295465      -82.900658      -22.658554
 C         -29.981585      -84.140976      -24.820538
 C         -30.811558      -83.030952      -22.254612
 C         -31.459553      -84.099541      -24.403944
 C         -31.492416      -84.163490      -22.930761
 H         -28.878361      -82.012810      -22.325834
 H         -28.549894      -83.632950      -22.230263
 H         -29.975391      -84.173042      -25.901543
 H         -29.446823      -85.111900      -24.557375
 H         -31.465324      -82.080376      -22.485966
 H         -31.005499      -82.984413      -21.219206
 H         -31.970211      -84.994881      -24.740726
 H         -32.033417      -83.295265      -24.882195
 H         -32.443542      -84.041801      -22.537142
 H         -31.088915      -85.130814      -22.525440
