20
 generated by VMD
 C         -78.677933     -210.181305      -76.444016
 N         -77.594109     -210.385803      -76.883583
 H         -79.548843     -212.090057      -74.763687
 H         -79.692299     -210.015915      -76.025940
 C         -79.620171     -212.314758      -73.661438
 C         -78.240814     -212.434631      -72.932137
 C         -80.775314     -213.049011      -73.153458
 C         -78.375710     -212.718826      -71.395256
 C         -80.818695     -213.520935      -71.714050
 C         -79.384079     -213.910568      -71.134880
 H         -77.664131     -211.511673      -73.153183
 H         -77.794655     -213.337158      -73.336143
 H         -81.640205     -212.463058      -73.402412
 H         -80.988152     -213.897751      -73.893051
 H         -78.815048     -211.806885      -70.939484
 H         -77.502670     -213.076797      -70.879578
 H         -81.419373     -214.365784      -71.538391
 H         -81.178551     -212.735764      -70.946365
 H         -79.399239     -214.230240      -70.113525
 H         -78.954384     -214.710449      -71.620010
