20
 generated by VMD
 C          -1.734646      -16.652517        2.647527
 N          -2.076940      -15.600871        2.463817
 H          -4.301510      -15.882109       -0.180363
 H          -4.628299      -17.115849       -1.429564
 C          -5.054743      -16.634809       -0.512707
 C          -6.346750      -15.812978       -0.752730
 C          -5.268723      -17.617670        0.655868
 C          -7.410826      -16.811039       -1.157218
 C          -6.498985      -18.545851        0.401949
 C          -7.758215      -17.817839       -0.092418
 H          -6.110231      -15.134009       -1.616286
 H          -6.661110      -15.250130        0.133256
 H          -4.398478      -18.340502        0.610670
 H          -5.398795      -17.125818        1.642572
 H          -7.059065      -17.365839       -2.001687
 H          -8.303113      -16.276917       -1.394983
 H          -6.700377      -19.164814        1.259813
 H          -6.162707      -19.221142       -0.403312
 H          -8.552278      -18.522444       -0.403927
 H          -8.207826      -17.254065        0.775201
