20
 generated by VMD
 C         -47.438885     -139.209732      -45.726093
 N         -46.771484     -138.672028      -46.542641
 H         -50.837296     -139.071228      -44.589401
 H         -48.063908     -139.515915      -44.870731
 C         -51.715530     -138.843964      -45.161350
 C         -51.871777     -139.189423      -46.555161
 C         -52.996098     -138.543167      -44.495052
 C         -53.010986     -140.198471      -46.839886
 C         -54.095654     -139.545273      -44.700592
 C         -54.287590     -139.774750      -46.208145
 H         -51.028244     -139.756912      -46.882416
 H         -51.870514     -138.239471      -47.125717
 H         -52.879749     -138.369736      -43.465248
 H         -53.301777     -137.617050      -44.896442
 H         -52.771866     -141.305130      -46.631863
 H         -53.144482     -140.058685      -47.958302
 H         -55.130257     -139.290787      -44.326473
 H         -53.750896     -140.340469      -44.145981
 H         -55.074352     -140.551010      -46.359779
 H         -54.858288     -138.891663      -46.747738
