20
 generated by VMD
 C         -47.905163     -134.345032      -47.342976
 N         -48.043007     -133.711746      -48.312584
 H         -49.644703     -134.410324      -44.315136
 H         -48.089088     -135.129242      -46.604630
 C         -50.255520     -135.151642      -43.885521
 C         -50.527855     -136.304901      -44.819782
 C         -51.159286     -134.929993      -42.672653
 C         -50.739338     -137.612198      -44.018723
 C         -51.357197     -136.213226      -41.900589
 C         -51.708340     -137.411896      -42.856709
 H         -49.609814     -136.463669      -45.504295
 H         -51.381325     -136.082062      -45.488659
 H         -50.843616     -134.154709      -41.999424
 H         -52.207588     -134.550079      -42.968239
 H         -49.805843     -138.097961      -43.609722
 H         -51.066074     -138.196976      -44.832138
 H         -52.221912     -136.138229      -41.191837
 H         -50.398335     -136.351105      -41.371330
 H         -51.756809     -138.402542      -42.233673
 H         -52.824154     -137.479324      -43.293667
