20
 generated by VMD
 C         -65.387985     -177.482666      -56.461636
 N         -66.084030     -176.948471      -55.685387
 H         -64.050301     -174.988022      -58.998718
 H         -64.735535     -177.924561      -57.253147
 C         -64.316353     -174.043350      -59.414360
 C         -65.424965     -173.178528      -58.773251
 C         -63.612713     -173.673355      -60.585663
 C         -65.007454     -171.703735      -58.738495
 C         -63.132858     -172.254135      -60.618847
 C         -64.117096     -171.194244      -60.091263
 H         -65.499741     -173.585419      -57.790627
 H         -66.356720     -173.540405      -59.270657
 H         -62.738224     -174.352402      -60.778809
 H         -64.195038     -173.929535      -61.501289
 H         -64.313629     -171.581665      -57.905392
 H         -65.770523     -170.960556      -58.596184
 H         -62.764130     -172.057083      -61.625820
 H         -62.227699     -172.224762      -59.947388
 H         -63.663815     -170.158875      -59.867931
 H         -64.914398     -171.161118      -60.837444
