20
 generated by VMD
 C         -67.193123     -177.766174      -57.305153
 N         -67.679367     -178.715286      -56.830204
 H         -64.114532     -176.195129      -59.088905
 H         -66.796501     -176.954773      -57.847538
 C         -64.235947     -175.192932      -59.527420
 C         -65.595139     -174.494400      -59.502987
 C         -63.219494     -174.727081      -60.496979
 C         -65.404510     -172.962112      -59.486572
 C         -62.903946     -173.253906      -60.278053
 C         -64.255920     -172.446274      -60.402271
 H         -66.212448     -174.875366      -58.594109
 H         -66.225960     -174.786987      -60.301304
 H         -62.235737     -175.311508      -60.369518
 H         -63.619602     -174.909164      -61.544228
 H         -65.276955     -172.618530      -58.463688
 H         -66.308800     -172.360626      -59.609180
 H         -62.129829     -172.818939      -60.913918
 H         -62.479046     -173.088715      -59.205917
 H         -63.873882     -171.525726      -59.970570
 H         -64.672859     -172.167145      -61.354946
