20
 generated by VMD
 C         -74.432045     -200.531647      -66.231735
 N         -73.324753     -200.938202      -66.305885
 H         -76.362122     -198.699341      -68.525558
 H         -75.455269     -200.345764      -66.393005
 C         -75.409470     -198.303833      -68.761230
 C         -74.919037     -197.202484      -67.717247
 C         -74.548531     -199.054962      -69.622833
 C         -73.555443     -196.531509      -68.053497
 C         -73.204788     -198.388138      -69.911827
 C         -72.595955     -197.578110      -68.713524
 H         -74.779549     -197.660065      -66.639557
 H         -75.658768     -196.414154      -67.659821
 H         -74.312347     -200.015030      -69.151726
 H         -75.110329     -199.234970      -70.512901
 H         -73.018349     -196.314957      -67.131058
 H         -73.536934     -195.682739      -68.736534
 H         -73.308891     -197.731857      -70.798134
 H         -72.470932     -199.179459      -70.349663
 H         -72.354050     -198.225525      -67.915451
 H         -71.522621     -197.185211      -69.103149
