20
 generated by VMD
 C         -64.795784     -175.401871      -55.836567
 N         -64.084389     -176.045578      -56.523766
 H         -65.523392     -174.313858      -59.012669
 H         -65.526810     -174.910843      -55.205700
 C         -64.958351     -173.404953      -58.996998
 C         -65.321793     -172.204803      -58.248520
 C         -63.981060     -173.352448      -60.098179
 C         -64.433952     -170.918610      -58.386467
 C         -63.116711     -172.086151      -60.113682
 C         -63.892166     -170.735840      -59.845387
 H         -65.244965     -172.555756      -57.086193
 H         -66.306305     -171.954620      -58.527405
 H         -63.405098     -174.206497      -60.131863
 H         -64.623772     -173.184555      -60.956585
 H         -63.555893     -170.977661      -57.623043
 H         -65.048744     -170.009430      -58.033558
 H         -62.690590     -171.982117      -61.130741
 H         -62.331982     -172.204758      -59.341469
 H         -63.164970     -169.917633      -59.941238
 H         -64.719032     -170.599426      -60.560989
