20
 generated by VMD
 C         -22.271502      -67.474945      -16.191336
 N         -21.155001      -67.183662      -16.136333
 H         -23.743038      -65.671822      -17.915012
 H         -23.399858      -67.742317      -15.996666
 C         -24.469458      -66.144325      -18.639267
 C         -23.938261      -66.660240      -19.941935
 C         -25.821239      -66.379189      -18.279869
 C         -24.499193      -68.049004      -20.204876
 C         -26.375353      -67.791138      -18.848183
 C         -26.001120      -68.060249      -20.257843
 H         -22.850342      -66.690727      -19.731533
 H         -24.087288      -65.806656      -20.686310
 H         -25.824902      -66.362434      -17.201536
 H         -26.576210      -65.579376      -18.423494
 H         -24.144569      -68.805618      -19.444738
 H         -24.037420      -68.417114      -21.182335
 H         -27.468800      -67.829597      -18.916616
 H         -26.066299      -68.608910      -18.083210
 H         -26.265837      -69.070114      -20.551352
 H         -26.313951      -67.272011      -20.958941
