20
 generated by VMD
 C         -78.751137     -208.298996      -76.845192
 N         -78.978981     -208.305542      -75.710411
 H         -79.129646     -209.739441      -73.437340
 H         -78.366112     -208.214142      -77.806076
 C         -78.630348     -210.056091      -72.541405
 C         -77.303116     -209.505386      -72.136818
 C         -79.065849     -211.283676      -71.968193
 C         -77.065865     -209.635803      -70.543259
 C         -79.028801     -211.166641      -70.373116
 C         -77.538269     -210.971725      -69.832565
 H         -77.175468     -208.477371      -72.428505
 H         -76.532150     -210.031754      -72.597992
 H         -80.052673     -211.567566      -72.336456
 H         -78.384010     -211.988342      -72.437096
 H         -77.405533     -208.776108      -69.974258
 H         -75.953255     -209.596542      -70.506218
 H         -79.557487     -211.949783      -69.978142
 H         -79.552513     -210.166626      -70.075150
 H         -77.531029     -211.001862      -68.758537
 H         -76.950577     -211.780930      -70.324745
