20
 generated by VMD
 C         -61.494614     -172.346466      -54.977768
 N         -60.604000     -173.002258      -55.153458
 H         -62.195950     -170.716370      -58.431904
 H         -62.396679     -171.846939      -54.679447
 C         -62.851791     -170.063644      -57.810871
 C         -62.607208     -168.658432      -57.617237
 C         -64.216492     -170.446899      -57.519260
 C         -63.417999     -167.850616      -58.661869
 C         -65.138046     -169.676086      -58.586933
 C         -64.961670     -168.108200      -58.636086
 H         -61.518364     -168.383453      -57.773357
 H         -62.921738     -168.355652      -56.617584
 H         -64.303040     -171.543320      -57.590321
 H         -64.398338     -170.056198      -56.468712
 H         -63.019405     -168.013977      -59.672157
 H         -63.171738     -166.858124      -58.416592
 H         -66.195580     -169.967529      -58.304726
 H         -64.922569     -170.113846      -59.664608
 H         -65.557594     -167.841232      -59.502754
 H         -65.377869     -167.660706      -57.741558
