20
 generated by VMD
 C         -11.954289      -31.475447       -8.253139
 N         -12.045136      -30.650700       -7.513021
 H         -11.771778      -34.732170       -8.008208
 H         -12.921547      -34.051003       -6.710672
 C         -11.943210      -34.661762       -6.917786
 C         -10.816565      -33.896664       -6.108364
 C         -12.155638      -36.019119       -6.263734
 C         -11.198279      -33.719925       -4.617743
 C         -12.500290      -35.921051       -4.789365
 C         -11.562134      -35.089054       -4.013116
 H         -10.607014      -32.904587       -6.586575
 H          -9.937346      -34.558804       -6.132200
 H         -12.960539      -36.605988       -6.759887
 H         -11.247821      -36.619896       -6.272429
 H         -12.147926      -33.223690       -4.630355
 H         -10.398399      -33.156998       -4.135572
 H         -12.603318      -36.951962       -4.412490
 H         -13.461187      -35.486027       -4.744664
 H         -11.945697      -34.946953       -2.963582
 H         -10.635403      -35.600521       -3.908738
