20
 generated by VMD
 C         -28.089956      -83.347969      -27.341318
 N         -27.292540      -83.437302      -26.528919
 H         -31.030510      -84.458984      -26.356939
 H         -28.764544      -83.360695      -28.208670
 C         -31.593237      -85.182480      -25.797251
 C         -31.628294      -85.004768      -24.297596
 C         -32.204239      -86.420532      -26.454706
 C         -32.597984      -85.868660      -23.554348
 C         -33.299400      -87.013809      -25.661364
 C         -32.912247      -87.202614      -24.213627
 H         -31.590954      -83.993179      -23.827913
 H         -30.634521      -85.328438      -23.996433
 H         -32.459942      -86.310043      -27.483095
 H         -31.393978      -87.175125      -26.381138
 H         -33.574417      -85.334717      -23.498484
 H         -32.159359      -86.057251      -22.591549
 H         -33.561783      -88.070175      -25.991388
 H         -34.317650      -86.453247      -25.674873
 H         -33.930271      -87.563957      -23.773323
 H         -32.187260      -87.941750      -23.901016
