20
 generated by VMD
 C          -4.851552      -21.054573        1.959006
 N          -5.263731      -20.287483        2.657175
 H          -5.170035      -18.583752       -0.681251
 H          -5.537374      -20.228090       -0.135797
 C          -5.836780      -19.462032       -0.866685
 C          -5.583165      -20.003042       -2.248684
 C          -7.251024      -18.972649       -0.560495
 C          -6.713494      -20.886024       -2.771900
 C          -8.302883      -19.775394       -1.201693
 C          -8.011742      -20.072132       -2.632593
 H          -4.591932      -20.528885       -2.301180
 H          -5.430103      -19.172237       -3.015367
 H          -7.344159      -18.799147        0.473170
 H          -7.288571      -17.927702       -0.916125
 H          -6.843852      -21.729815       -2.059505
 H          -6.469811      -21.337652       -3.710315
 H          -9.263243      -19.292017       -1.084337
 H          -8.300627      -20.734243       -0.618457
 H          -8.820641      -20.741325       -3.068149
 H          -8.093287      -19.140158       -3.244807
