20
 generated by VMD
 C         -41.493149     -119.771599      -34.194477
 N         -41.700443     -120.598839      -35.015732
 H         -43.447971     -118.788033      -37.015640
 H         -41.508034     -119.159286      -33.287010
 C         -43.914894     -118.489395      -37.955982
 C         -42.999882     -118.350891      -39.200947
 C         -45.220478     -117.890045      -37.847004
 C         -43.835739     -118.775475      -40.347168
 C         -46.030544     -118.149162      -39.128597
 C         -45.108242     -117.930679      -40.367073
 H         -42.082226     -118.881424      -38.938843
 H         -42.671658     -117.386482      -39.295448
 H         -45.723019     -118.522224      -37.027168
 H         -45.264709     -116.778595      -37.560581
 H         -44.119995     -119.826012      -40.184055
 H         -43.234268     -118.626984      -41.229546
 H         -46.884892     -117.381096      -39.015381
 H         -46.502613     -119.276474      -39.194450
 H         -45.790798     -118.223122      -41.243320
 H         -44.801510     -116.829399      -40.298252
