20
 generated by VMD
 C         -30.188066      -92.755692      -25.829947
 N         -31.339170      -92.847366      -25.618704
 H         -32.846031      -90.868362      -26.301582
 H         -29.107489      -92.537186      -25.964066
 C         -33.506683      -90.911041      -27.186533
 C         -34.419125      -92.139954      -27.384775
 C         -33.100597      -90.223282      -28.420828
 C         -35.578133      -91.735947      -28.218494
 C         -34.349072      -89.964561      -29.388720
 C         -35.353394      -91.009895      -29.500935
 H         -34.743923      -92.494972      -26.343792
 H         -33.631588      -92.877838      -27.732576
 H         -32.541122      -89.303871      -28.270649
 H         -32.333645      -90.819412      -29.014198
 H         -36.176231      -91.018417      -27.609383
 H         -36.292347      -92.529167      -28.476158
 H         -33.826313      -89.689987      -30.361988
 H         -34.809654      -88.973839      -29.114742
 H         -36.308968      -90.778580      -29.896530
 H         -34.900532      -91.616837      -30.259377
