20
 generated by VMD
 C         -33.787994      -97.050011      -26.202120
 N         -34.875034      -96.948578      -25.763531
 H         -35.214672      -94.108330      -27.419880
 H         -32.866058      -97.206520      -26.626347
 C         -35.159740      -94.066223      -28.492998
 C         -36.031246      -94.820564      -29.448416
 C         -33.767727      -93.657051      -28.971697
 C         -35.981194      -94.093674      -30.837299
 C         -33.694794      -93.081474      -30.330240
 C         -34.538685      -93.956085      -31.299416
 H         -37.080616      -94.862259      -29.024630
 H         -35.680199      -95.889320      -29.567568
 H         -33.348877      -93.073418      -28.133316
 H         -33.136490      -94.610130      -29.076372
 H         -36.588112      -93.140045      -30.730051
 H         -36.506344      -94.800140      -31.449186
 H         -32.694874      -92.991943      -30.781162
 H         -34.264183      -92.122391      -30.376606
 H         -34.658104      -93.461311      -32.291382
 H         -34.159519      -95.047714      -31.589348
