20
 generated by VMD
 C         -49.911911     -131.568939      -46.625267
 N         -50.250687     -131.796219      -47.775162
 H         -48.332878     -132.144394      -44.020035
 H         -49.921837     -131.157486      -45.634552
 C         -49.060711     -132.199005      -43.165283
 C         -49.645226     -133.613281      -43.339523
 C         -48.709217     -131.785446      -41.691689
 C         -48.932747     -134.640045      -42.510937
 C         -47.972176     -132.859421      -40.987686
 C         -48.767944     -134.183365      -41.072506
 H         -49.636578     -133.842270      -44.403412
 H         -50.683537     -133.324585      -43.028225
 H         -48.187408     -130.848007      -41.744980
 H         -49.716358     -131.466187      -41.185543
 H         -47.995621     -134.663818      -43.016224
 H         -49.419724     -135.577545      -42.685513
 H         -47.789288     -132.590210      -39.879940
 H         -47.004173     -133.141068      -41.351379
 H         -48.246719     -134.984924      -40.585754
 H         -49.749565     -134.074448      -40.594803
