20
 generated by VMD
 C         -63.212444     -172.980103      -55.518715
 N         -62.858433     -173.924713      -54.882622
 H         -61.778088     -171.757095      -58.185341
 H         -63.365913     -172.130661      -56.235214
 C         -62.623531     -171.058807      -58.308292
 C         -62.433548     -169.568085      -58.049343
 C         -63.759972     -171.587997      -59.149349
 C         -63.709351     -168.727249      -58.280098
 C         -64.860527     -170.628601      -59.360806
 C         -64.960114     -169.582550      -58.330910
 H         -61.595428     -169.281509      -58.811813
 H         -62.045559     -169.413467      -57.089340
 H         -63.237045     -171.793655      -60.110184
 H         -64.200279     -172.636185      -58.846317
 H         -63.586666     -168.245361      -59.160522
 H         -63.803791     -167.990875      -57.481297
 H         -65.720596     -171.343124      -59.256710
 H         -64.892166     -170.233368      -60.411201
 H         -65.871346     -168.989014      -58.692024
 H         -65.152054     -169.931274      -57.312828
