20
 generated by VMD
 C         -55.672184     -149.000427      -45.557899
 N         -55.145363     -149.572540      -44.731884
 H         -54.435600     -148.147476      -48.326572
 H         -56.299793     -148.543106      -46.299885
 C         -54.239025     -147.256561      -48.887241
 C         -53.114613     -147.268204      -49.969780
 C         -54.967068     -145.992340      -48.504215
 C         -53.450581     -146.378967      -51.083206
 C         -55.180801     -145.078888      -49.758781
 C         -53.933514     -144.981293      -50.587753
 H         -53.030060     -148.239243      -50.550591
 H         -52.198292     -146.978394      -49.496593
 H         -55.964901     -146.269379      -48.167706
 H         -54.565842     -145.456207      -47.733414
 H         -54.221302     -146.803757      -51.674961
 H         -52.599354     -146.249985      -51.775497
 H         -55.640556     -144.167450      -49.544411
 H         -55.967838     -145.527115      -50.432968
 H         -54.408051     -144.497726      -51.396896
 H         -53.112030     -144.376816      -50.117733
