20
 generated by VMD
 C         -69.782562     -180.466537      -61.446850
 N         -69.168472     -180.806213      -62.388153
 H         -66.931778     -179.996414      -59.383926
 H         -70.477821     -180.070236      -60.661964
 C         -66.261055     -179.221802      -59.724808
 C         -65.483971     -179.548752      -60.938534
 C         -65.754662     -178.140747      -58.883411
 C         -65.292969     -178.245621      -61.709362
 C         -65.784004     -176.864792      -59.742756
 C         -64.691406     -176.980896      -60.839886
 H         -66.038277     -180.277206      -61.586170
 H         -64.475525     -179.923630      -60.524052
 H         -66.567657     -177.998657      -58.207798
 H         -64.822861     -178.423035      -58.255325
 H         -66.098640     -177.798523      -62.275936
 H         -64.578537     -178.377899      -62.538475
 H         -65.512566     -176.078918      -59.014462
 H         -66.767143     -176.600082      -60.082211
 H         -64.587486     -176.115692      -61.458633
 H         -63.747082     -177.453491      -60.393894
