20
 generated by VMD
 C          -1.678201      -14.079570        2.230704
 N          -1.887272      -13.789743        1.174499
 H          -3.862154      -16.966251        1.375830
 H          -4.053699      -17.158321       -0.321400
 C          -4.616147      -17.026211        0.600906
 C          -5.371322      -15.715050        0.653642
 C          -5.524805      -18.219069        0.888415
 C          -6.650695      -15.643860       -0.111294
 C          -6.771117      -18.175268        0.000819
 C          -7.534857      -16.875057        0.234838
 H          -4.599266      -15.024145        0.224523
 H          -5.470333      -15.384203        1.659243
 H          -5.003390      -19.214104        0.831205
 H          -5.742763      -18.191067        1.995316
 H          -6.452330      -15.710842       -1.218760
 H          -7.274423      -14.747711        0.084253
 H          -7.466294      -18.980921        0.328422
 H          -6.444396      -18.379620       -1.025292
 H          -8.487213      -16.860775       -0.262444
 H          -7.708489      -16.715960        1.296966
