20
 generated by VMD
 C         -10.853806      -25.773882       -0.845094
 N         -11.016297      -24.710979       -0.593279
 H          -7.037930      -25.790838       -0.904029
 H          -8.655646      -25.454647       -1.481936
 C          -7.559359      -25.317501       -1.737649
 C          -7.246913      -26.210571       -2.990934
 C          -7.182189      -23.824074       -1.996291
 C          -7.827779      -25.574291       -4.259022
 C          -7.748288      -23.214558       -3.300618
 C          -7.420292      -24.065296       -4.493490
 H          -7.728621      -27.217659       -2.835036
 H          -6.153658      -26.285076       -3.105327
 H          -7.511244      -23.181787       -1.168459
 H          -6.086546      -23.735308       -2.172659
 H          -8.943119      -25.659628       -4.187665
 H          -7.407252      -26.109522       -5.162597
 H          -7.305197      -22.232126       -3.385537
 H          -8.827520      -23.066832       -3.279105
 H          -7.885643      -23.664831       -5.388954
 H          -6.333495      -24.145233       -4.629248
