20
 generated by VMD
 C         -68.270187     -194.353867      -66.314972
 N         -67.712540     -194.248871      -65.304970
 H         -70.426414     -191.139053      -66.788216
 H         -68.628082     -194.479691      -67.378540
 C         -71.422272     -191.264587      -66.388687
 C         -72.432793     -190.155121      -66.501190
 C         -71.492592     -192.168884      -65.146729
 C         -73.935097     -190.730286      -66.409477
 C         -72.882927     -192.164856      -64.450119
 C         -74.012291     -191.962448      -65.476631
 H         -72.403008     -189.728241      -67.537231
 H         -72.253525     -189.380203      -65.781425
 H         -71.341805     -193.184235      -65.672493
 H         -70.752068     -191.922882      -64.375267
 H         -74.150497     -191.117004      -67.402054
 H         -74.464226     -189.870026      -66.023972
 H         -72.820763     -191.298721      -63.800556
 H         -73.121307     -193.005630      -63.755680
 H         -73.942627     -192.832504      -66.043060
 H         -75.066353     -191.975571      -64.937637
