20
 generated by VMD
 C         -29.328806      -73.463394      -19.296350
 N         -29.746521      -74.482750      -18.999912
 H         -25.794489      -73.319199      -18.884504
 H         -29.121851      -72.576614      -19.738100
 C         -25.490000      -72.983894      -19.835676
 C         -24.926132      -73.989212      -20.814001
 C         -25.550419      -71.559975      -20.432484
 C         -25.544186      -73.977592      -22.095381
 C         -26.250689      -71.578377      -21.777613
 C         -25.688286      -72.625771      -22.786661
 H         -25.204994      -74.954681      -20.344812
 H         -23.898771      -73.819160      -20.878290
 H         -26.145733      -71.101921      -19.626524
 H         -24.609787      -71.045860      -20.525076
 H         -26.541397      -74.439079      -22.096546
 H         -24.919430      -74.649376      -22.710121
 H         -26.129421      -70.637917      -22.423475
 H         -27.373835      -71.822472      -21.801981
 H         -26.422138      -72.796547      -23.613060
 H         -24.786709      -72.262268      -23.170933
