20
 generated by VMD
 C         -12.017515      -39.502293       -6.552207
 N         -11.084682      -39.214184       -7.079110
 H         -12.873646      -41.229931       -8.993855
 H         -14.111757      -39.923859       -8.729879
 C         -13.920815      -40.982010       -9.067310
 C         -14.620127      -41.853748       -7.997207
 C         -14.526370      -41.179367      -10.452417
 C         -16.133867      -41.758316       -7.995316
 C         -16.019787      -41.117527      -10.479685
 C         -16.678366      -42.005692       -9.378895
 H         -14.173152      -41.603138       -7.044347
 H         -14.340429      -42.929287       -8.176943
 H         -14.056924      -40.452705      -11.074842
 H         -14.121327      -42.153362      -10.858334
 H         -16.483545      -40.754929       -7.679700
 H         -16.520803      -42.479584       -7.298279
 H         -16.494909      -41.415306      -11.485282
 H         -16.291983      -40.138573      -10.237967
 H         -17.728540      -41.868774       -9.363797
 H         -16.570269      -43.024548       -9.724730
