20
 generated by VMD
 C         -66.413773     -177.930054      -56.901966
 N         -67.562668     -177.864014      -56.992165
 H         -64.384186     -176.073853      -59.318165
 H         -65.368523     -177.999252      -56.941193
 C         -64.348518     -175.005997      -59.556225
 C         -65.558693     -174.157852      -59.227669
 C         -63.202797     -174.514297      -60.405102
 C         -65.284073     -172.676010      -59.215496
 C         -62.970520     -172.975388      -60.384193
 C         -64.324982     -172.182098      -60.297585
 H         -65.846977     -174.347351      -58.136997
 H         -66.469482     -174.476761      -59.697254
 H         -62.243748     -175.041641      -60.243679
 H         -63.499878     -174.939148      -61.418716
 H         -64.978889     -172.355148      -58.172600
 H         -66.200165     -172.079727      -59.429585
 H         -62.470478     -172.646683      -61.265785
 H         -62.197227     -172.756805      -59.530510
 H         -64.104179     -171.077759      -60.442478
 H         -64.915535     -172.489319      -61.189823
