20
 generated by VMD
 C         -50.581451     -129.402100      -43.142017
 N         -50.379189     -128.295700      -42.989452
 H         -48.522640     -127.930115      -40.255955
 H         -50.591415     -130.446762      -43.406597
 C         -47.478172     -127.845200      -40.505043
 C         -46.409237     -128.703552      -39.876461
 C         -47.164505     -126.389328      -40.934429
 C         -45.360287     -128.855591      -40.988522
 C         -46.231869     -126.625183      -42.072121
 C         -45.039726     -127.484947      -41.629803
 H         -46.704964     -129.777496      -39.593388
 H         -45.928715     -128.333160      -39.005337
 H         -48.197014     -125.918480      -41.097923
 H         -46.702454     -125.948769      -40.128475
 H         -45.751362     -129.493210      -41.776936
 H         -44.421043     -129.128586      -40.540215
 H         -45.712528     -125.720009      -42.363739
 H         -46.630383     -127.135193      -42.986130
 H         -44.337177     -127.613998      -42.424881
 H         -44.506374     -126.953529      -40.838402
