20
 generated by VMD
 C         -80.027794     -205.462906      -71.589394
 N         -80.013062     -206.614441      -71.532288
 H         -77.397629     -203.147675      -70.738892
 H         -80.004784     -204.406891      -71.485069
 C         -76.416458     -203.544662      -70.451477
 C         -75.253304     -202.657944      -70.590393
 C         -76.053940     -204.950058      -70.157204
 C         -73.765457     -203.156372      -70.322487
 C         -74.968918     -205.040863      -69.135025
 C         -73.640602     -204.575897      -69.661568
 H         -75.370163     -201.905289      -69.799927
 H         -75.247307     -202.016068      -71.483177
 H         -76.961227     -205.404922      -69.755409
 H         -75.727913     -205.630447      -70.969772
 H         -73.346832     -202.348450      -69.756546
 H         -73.250656     -203.080307      -71.310097
 H         -74.943344     -206.056107      -68.823196
 H         -75.222679     -204.417435      -68.185715
 H         -72.910622     -204.534454      -68.776863
 H         -73.110474     -205.206360      -70.436729
