20
 generated by VMD
 C         -38.308800     -115.052322      -35.419651
 N         -39.183216     -115.289635      -34.680111
 H         -41.484673     -115.917427      -37.026512
 H         -37.699551     -115.039780      -36.254528
 C         -42.442944     -115.420799      -37.107391
 C         -42.933575     -115.249557      -38.464111
 C         -43.421707     -115.256195      -35.980953
 C         -44.172264     -116.126167      -38.678650
 C         -44.738449     -115.957336      -36.307472
 C         -45.286171     -115.723190      -37.766682
 H         -42.138165     -115.500381      -39.128342
 H         -43.026203     -114.171318      -38.630070
 H         -43.135845     -115.735458      -35.087761
 H         -43.523735     -114.243935      -35.651009
 H         -43.832283     -117.184402      -38.493820
 H         -44.601562     -116.066116      -39.676952
 H         -45.600670     -115.739113      -35.653690
 H         -44.612141     -117.047737      -36.239143
 H         -46.226112     -116.406425      -37.857082
 H         -45.485176     -114.714989      -37.767330
