20
 generated by VMD
 C          -3.779869      -18.532251        2.069186
 N          -3.174206      -18.334358        2.984438
 H          -5.599893      -20.717447        0.293978
 H          -6.326463      -21.162264       -1.330124
 C          -6.205826      -20.357880       -0.566571
 C          -5.530691      -19.226110       -1.285241
 C          -7.564746      -19.911741       -0.115644
 C          -6.319896      -18.642551       -2.499283
 C          -8.480366      -19.447779       -1.311533
 C          -7.794938      -18.308065       -2.113838
 H          -4.533610      -19.544830       -1.554553
 H          -5.450360      -18.328363       -0.589583
 H          -8.054162      -20.774960        0.479622
 H          -7.478462      -19.015112        0.536483
 H          -6.363783      -19.421556       -3.301848
 H          -5.869638      -17.696295       -2.856233
 H          -9.485654      -19.193195       -1.015035
 H          -8.531550      -20.353394       -1.943363
 H          -8.346583      -18.072727       -3.051613
 H          -7.709141      -17.388884       -1.545150
