20
 generated by VMD
 C         -40.523178      -99.896820      -29.417210
 N         -39.987946     -100.177574      -28.453974
 H         -37.308041      -99.130463      -30.651453
 H         -41.219963      -99.810463      -30.313484
 C         -36.305298      -98.952911      -30.787048
 C         -35.806778      -99.229149      -32.107082
 C         -35.466995      -99.048492      -29.655781
 C         -34.796501      -98.219116      -32.502922
 C         -34.317600      -98.054817      -29.996143
 C         -33.733906      -98.081779      -31.388134
 H         -36.558987      -99.223770      -32.891090
 H         -35.502453     -100.271553      -32.030788
 H         -36.023705      -98.853920      -28.734903
 H         -34.975842      -99.988365      -29.533258
 H         -35.268795      -97.299850      -32.911526
 H         -34.374855      -98.698471      -33.458351
 H         -33.450680      -98.231728      -29.329144
 H         -34.823650      -97.049820      -29.910044
 H         -33.039917      -97.215469      -31.668221
 H         -33.120300      -98.973976      -31.399969
