20
 generated by VMD
 C         -58.439041     -158.994797      -58.054684
 N         -59.149380     -159.230957      -57.193268
 H         -59.003292     -160.352280      -54.734371
 H         -57.727135     -158.797318      -58.848541
 C         -59.392925     -160.936371      -53.957115
 C         -58.578671     -161.194214      -52.714043
 C         -60.742458     -161.642105      -54.072510
 C         -59.481796     -161.216537      -51.507301
 C         -61.521408     -161.865433      -52.826527
 C         -60.691833     -162.139694      -51.623688
 H         -57.970394     -160.341690      -52.591660
 H         -58.052296     -162.183365      -52.923141
 H         -61.525459     -161.131210      -54.715454
 H         -60.543888     -162.649277      -54.593281
 H         -59.672779     -160.180725      -51.162998
 H         -58.774521     -161.445694      -50.670231
 H         -62.153053     -162.738037      -53.018169
 H         -62.277962     -161.069183      -52.609192
 H         -61.313679     -162.102585      -50.714149
 H         -60.263744     -163.183884      -51.663990
