20
 generated by VMD
 C         -68.637154     -184.848587      -65.962883
 N         -69.583542     -185.497681      -65.986786
 H         -69.834724     -182.789673      -63.256493
 H         -67.762062     -184.256668      -65.855362
 C         -69.192619     -183.637604      -62.912590
 C         -69.944389     -184.954681      -62.643021
 C         -67.812599     -183.476639      -62.500389
 C         -69.076279     -186.014267      -61.931221
 C         -67.451195     -184.126953      -61.211002
 C         -68.423470     -185.240585      -60.723576
 H         -70.501328     -185.272522      -63.518101
 H         -70.795067     -184.706406      -61.911270
 H         -67.099419     -183.601913      -63.346573
 H         -67.697929     -182.393524      -62.231579
 H         -68.239380     -186.326965      -62.519188
 H         -69.756416     -186.837753      -61.685005
 H         -67.475708     -183.240143      -60.482040
 H         -66.459755     -184.568253      -61.227402
 H         -67.829056     -185.934982      -60.121891
 H         -69.143707     -184.725998      -60.170349
