20
 generated by VMD
 C         -50.160301     -145.013931      -44.600285
 N         -49.416920     -144.082993      -44.544895
 H         -52.610142     -142.650620      -45.772381
 H         -50.796967     -145.911575      -44.562458
 C         -53.164326     -142.496063      -46.678711
 C         -52.361187     -142.434021      -47.994919
 C         -54.624306     -141.774673      -46.666729
 C         -53.306114     -142.752335      -49.238358
 C         -55.384933     -142.032654      -47.842384
 C         -54.607216     -141.928818      -49.146610
 H         -51.533401     -143.099869      -48.022697
 H         -52.065998     -141.348587      -48.051743
 H         -55.225723     -142.052444      -45.753700
 H         -54.399109     -140.640762      -46.645084
 H         -53.572983     -143.914963      -49.274769
 H         -52.782665     -142.512039      -50.255554
 H         -56.244267     -141.370239      -47.844601
 H         -55.928463     -142.998871      -47.805721
 H         -55.234596     -142.326569      -49.987923
 H         -54.392395     -140.807251      -49.370750
