20
 generated by VMD
 C         -41.586063     -119.631592      -34.305569
 N         -41.510624     -120.314774      -35.239998
 H         -43.426994     -118.405006      -36.782173
 H         -41.404278     -118.919128      -33.583271
 C         -43.874298     -118.399071      -37.777000
 C         -42.961784     -118.349472      -39.017159
 C         -45.194202     -117.683342      -37.769234
 C         -43.768154     -118.599831      -40.219021
 C         -45.945896     -118.119965      -38.988026
 C         -45.136650     -117.901215      -40.265667
 H         -42.163364     -119.067154      -39.085785
 H         -42.485485     -117.378731      -39.225853
 H         -45.624901     -117.896095      -36.825119
 H         -45.114311     -116.530182      -37.833138
 H         -44.078720     -119.701347      -40.240284
 H         -43.301266     -118.455994      -41.174522
 H         -47.009212     -117.634766      -39.083195
 H         -46.136803     -119.242088      -38.998234
 H         -45.575848     -118.296623      -41.138748
 H         -44.945793     -116.832268      -40.522064
