20
 generated by VMD
 C         -22.308786      -52.843395      -12.303244
 N         -23.373331      -52.420742      -12.515064
 H         -19.991138      -54.102528      -14.598130
 H         -21.412674      -53.077221      -11.882458
 C         -19.314989      -53.691864      -13.921576
 C         -18.732719      -52.301914      -13.960317
 C         -18.284605      -54.792942      -13.423223
 C         -17.253056      -52.357464      -14.220180
 C         -17.107704      -54.227177      -12.613948
 C         -16.348452      -53.110741      -13.284459
 H         -18.929642      -51.795155      -12.964687
 H         -19.144754      -51.657581      -14.705692
 H         -18.759712      -55.490337      -12.760258
 H         -18.039568      -55.257076      -14.423313
 H         -16.890724      -51.349854      -14.442940
 H         -17.138868      -52.885803      -15.171299
 H         -16.454678      -55.018909      -12.312303
 H         -17.505529      -53.778049      -11.658708
 H         -15.911256      -52.390766      -12.572674
 H         -15.488332      -53.474178      -13.935182
