20
 generated by VMD
 C         -21.238258      -52.107967      -10.071767
 N         -21.447048      -53.030445      -10.724684
 H         -19.636223      -50.256336      -12.815232
 H         -21.169123      -50.985836       -9.697586
 C         -18.600050      -50.496735      -12.828622
 C         -18.220053      -51.845581      -13.392097
 C         -17.582447      -49.469238      -12.290130
 C         -16.949547      -51.574966      -14.222053
 C         -16.252682      -49.464195      -12.968373
 C         -15.907909      -50.891064      -13.296408
 H         -19.068750      -52.289597      -13.894398
 H         -18.024780      -52.580315      -12.545174
 H         -18.119253      -48.494030      -12.276966
 H         -17.337601      -49.764282      -11.289345
 H         -17.214663      -50.939075      -15.093201
 H         -16.569967      -52.579330      -14.498269
 H         -15.503402      -49.049644      -12.265969
 H         -16.262819      -48.872082      -13.843271
 H         -14.866829      -50.938972      -13.705200
 H         -15.832110      -51.474838      -12.324712
