20
 generated by VMD
 C         -30.789219      -78.068916      -25.898069
 N         -31.837088      -77.644310      -26.004995
 H         -29.386259      -77.909599      -22.778749
 H         -29.854382      -78.555061      -25.512602
 C         -28.907539      -78.854912      -22.920441
 C         -27.519264      -79.159637      -23.320637
 C         -29.648708      -80.080200      -22.557266
 C         -26.706244      -79.875641      -22.194283
 C         -29.036177      -80.895462      -21.423965
 C         -27.500629      -81.036232      -21.499229
 H         -27.048025      -78.255150      -23.547338
 H         -27.554815      -79.767532      -24.166250
 H         -30.729116      -79.770195      -22.440603
 H         -29.698137      -80.643715      -23.493263
 H         -26.545431      -79.213173      -21.324701
 H         -25.749243      -80.051666      -22.563061
 H         -29.603182      -81.830101      -21.406763
 H         -29.181952      -80.146698      -20.589663
 H         -27.073248      -81.196976      -20.448427
 H         -27.352751      -82.004158      -22.099712
