20
 generated by VMD
 C         -13.923806      -43.441109       -6.635550
 N         -13.199372      -43.720119       -5.834207
 H         -15.045929      -45.105328       -9.033735
 H         -14.379956      -43.900593      -10.122965
 C         -15.302983      -44.493313       -9.859566
 C         -16.435350      -43.538460       -9.522046
 C         -15.443345      -45.431557      -11.111821
 C         -16.771749      -42.811985      -10.832886
 C         -16.005762      -44.686672      -12.309900
 C         -17.200071      -43.865852      -11.875718
 H         -16.130104      -42.804119       -8.810720
 H         -17.260870      -44.018360       -9.018744
 H         -14.490156      -45.893764      -11.321873
 H         -16.136009      -46.170273      -10.801126
 H         -15.868741      -42.262238      -11.189213
 H         -17.546181      -42.039551      -10.719775
 H         -16.383402      -45.274086      -13.072240
 H         -15.196032      -44.042572      -12.750719
 H         -17.595877      -43.420013      -12.808187
 H         -18.022385      -44.497887      -11.437682
