20
 generated by VMD
 C         -50.734116     -127.693436      -40.943253
 N         -51.395420     -128.389938      -41.614498
 H         -47.527851     -127.818214      -41.061275
 H         -50.410526     -127.080055      -40.099575
 C         -46.734924     -127.157730      -40.873161
 C         -45.440434     -127.532028      -40.127560
 C         -46.773338     -125.679787      -41.274208
 C         -44.171211     -126.956169      -40.713161
 C         -45.471375     -125.096886      -41.870831
 C         -44.253044     -125.522240      -41.041389
 H         -45.450504     -128.671982      -40.062782
 H         -45.563770     -127.065773      -39.151115
 H         -47.790028     -125.408340      -41.824795
 H         -46.959736     -124.971367      -40.370770
 H         -43.756989     -127.567566      -41.544075
 H         -43.318977     -126.894302      -40.011787
 H         -45.554668     -123.968712      -41.815796
 H         -45.316582     -125.338844      -43.034393
 H         -43.364479     -125.222237      -41.522907
 H         -44.309975     -124.935997      -40.126450
