20
 generated by VMD
 C         -25.797695      -71.248749      -17.117563
 N         -25.615593      -71.599609      -16.033121
 H         -24.317352      -69.245407      -18.569214
 H         -26.030554      -70.902557      -18.082228
 C         -24.559866      -69.156754      -19.637384
 C         -23.958220      -70.097832      -20.583483
 C         -25.802139      -68.361969      -19.999214
 C         -24.822336      -71.012711      -21.269901
 C         -26.776573      -69.378563      -20.702105
 C         -26.055437      -70.200394      -21.736965
 H         -23.292450      -70.654610      -20.043140
 H         -23.518673      -69.347160      -21.238482
 H         -26.236086      -67.794456      -19.216381
 H         -25.559301      -67.480438      -20.652384
 H         -25.240189      -71.861137      -20.658930
 H         -24.293501      -71.348228      -22.131929
 H         -27.580759      -68.723099      -21.081518
 H         -27.399460      -70.043869      -20.060160
 H         -26.885471      -70.824852      -22.219231
 H         -25.699350      -69.573723      -22.638041
