20
 generated by VMD
 C         -38.361725     -109.705612      -36.441570
 N         -37.569489     -109.021866      -35.896137
 H         -40.648075     -111.491051      -36.944534
 H         -38.878223     -110.346191      -37.154991
 C         -41.311321     -111.846375      -36.146244
 C         -42.014614     -113.089317      -36.343845
 C         -41.975044     -110.923836      -35.262245
 C         -42.475574     -113.792862      -35.031067
 C         -42.112003     -111.595398      -33.839817
 C         -42.879459     -112.870712      -33.890697
 H         -41.491913     -113.704674      -37.110603
 H         -43.020897     -112.669792      -36.738018
 H         -41.481377     -109.987305      -34.943924
 H         -42.969479     -110.545959      -35.547443
 H         -41.672348     -114.541756      -34.720428
 H         -43.303761     -114.395844      -35.270870
 H         -42.647457     -110.795479      -33.274864
 H         -41.098938     -111.728264      -33.280979
 H         -42.771217     -113.378098      -32.890770
 H         -44.008282     -112.736099      -33.962177
