20
 generated by VMD
 C         -60.129936     -156.553223      -55.510857
 N         -60.864548     -155.781281      -56.067669
 H         -59.752518     -157.794067      -52.660088
 H         -59.443794     -157.225983      -55.011784
 C         -58.741257     -157.982697      -52.835560
 C         -57.741882     -156.863876      -52.704182
 C         -58.311131     -159.287949      -52.303925
 C         -57.322922     -156.748245      -51.206364
 C         -58.097027     -159.173782      -50.802784
 C         -56.923340     -158.109360      -50.462479
 H         -58.144886     -155.952408      -53.183506
 H         -56.874947     -157.125809      -53.308952
 H         -59.186523     -159.972412      -52.482018
 H         -57.442432     -159.731857      -52.720074
 H         -58.309666     -156.509216      -50.713448
 H         -56.497723     -156.025375      -50.887341
 H         -57.718178     -160.103012      -50.443138
 H         -59.023838     -158.836823      -50.450912
 H         -56.837654     -157.949066      -49.385342
 H         -55.954140     -158.450348      -50.918106
