20
 generated by VMD
 C         -58.887104     -158.946075      -57.325703
 N         -58.956341     -158.128998      -58.226471
 H         -59.652142     -159.439163      -54.414749
 H         -58.762344     -159.681107      -56.543137
 C         -59.527683     -160.244751      -53.664959
 C         -58.480007     -160.198807      -52.639057
 C         -60.589657     -161.367935      -53.717430
 C         -58.970009     -160.865463      -51.262413
 C         -61.167137     -161.640640      -52.349258
 C         -60.019238     -161.962891      -51.388325
 H         -58.116665     -159.192291      -52.522186
 H         -57.608566     -160.844223      -52.919029
 H         -61.306858     -160.954636      -54.370461
 H         -60.175930     -162.324219      -54.129566
 H         -59.470036     -160.052994      -50.815037
 H         -57.983860     -161.225418      -50.762512
 H         -61.867317     -162.493057      -52.333290
 H         -61.682285     -160.737396      -51.965458
 H         -60.398548     -161.963577      -50.353252
 H         -59.449425     -162.928925      -51.606350
