20
 generated by VMD
 C         -22.225578      -55.153179      -17.323238
 N         -22.667439      -55.128029      -18.420677
 H         -20.355022      -56.121746      -13.977757
 H         -21.693346      -54.657604      -16.368135
 C         -20.540600      -57.270126      -14.085252
 C         -20.938543      -58.121624      -12.912103
 C         -19.822950      -57.842171      -15.302148
 C         -20.942768      -59.649048      -13.095006
 C         -19.730835      -59.385086      -15.358480
 C         -19.683758      -60.071350      -13.997681
 H         -21.920988      -57.771057      -12.499104
 H         -20.208603      -57.937653      -12.139252
 H         -20.180828      -57.306190      -16.174690
 H         -18.739624      -57.495285      -15.121541
 H         -21.881756      -60.085133      -13.477976
 H         -20.833555      -60.005592      -12.067712
 H         -18.800831      -59.718571      -15.851706
 H         -20.629158      -59.774906      -15.841731
 H         -19.604147      -61.168514      -14.088705
 H         -18.813566      -59.741589      -13.501223
