20
 generated by VMD
 C         -12.009416      -42.725815       -7.134552
 N         -12.431337      -42.137375       -6.297060
 H         -14.922009      -43.817169       -8.190899
 H         -14.648459      -42.259495       -9.152279
 C         -15.167015      -43.193783       -9.098811
 C         -16.689585      -43.005985       -9.043121
 C         -14.812232      -44.021847      -10.331861
 C         -17.353926      -42.485306      -10.330194
 C         -15.634626      -43.673576      -11.657869
 C         -17.170513      -43.420967      -11.489033
 H         -16.935894      -42.351120       -8.181541
 H         -17.186111      -43.989029       -8.734805
 H         -13.770683      -44.032253      -10.557957
 H         -15.102495      -45.046150      -10.021031
 H         -16.973953      -41.465195      -10.476354
 H         -18.440483      -42.454823      -10.162923
 H         -15.541870      -44.561054      -12.357965
 H         -15.113896      -42.816006      -12.087253
 H         -17.598116      -43.100197      -12.419453
 H         -17.605438      -44.353745      -11.184493
