20
 generated by VMD
 C         -47.716621     -124.742958      -38.186192
 N         -47.270550     -125.640633      -38.708916
 H         -45.180618     -123.079849      -37.860291
 H         -47.929901     -123.868507      -37.525333
 C         -44.939114     -122.697502      -38.831753
 C         -43.740955     -123.421280      -39.486717
 C         -45.707188     -121.679886      -39.534378
 C         -44.269512     -123.949059      -40.808121
 C         -46.171940     -122.369240      -40.985271
 C         -44.854107     -122.774513      -41.639130
 H         -43.460838     -124.146858      -38.710667
 H         -42.843777     -122.756409      -39.650791
 H         -46.515652     -121.504379      -38.849335
 H         -45.157341     -120.756775      -39.710945
 H         -45.045635     -124.815994      -40.700943
 H         -43.509068     -124.523048      -41.539970
 H         -46.648014     -121.544884      -41.620064
 H         -47.079815     -122.986679      -40.739227
 H         -45.144115     -123.199188      -42.647701
 H         -44.136902     -121.945679      -41.794289
