20
 generated by VMD
 C         -60.303452     -170.564850      -55.176098
 N         -59.206841     -170.932129      -55.313160
 H         -63.276840     -170.453384      -56.571796
 H         -61.341667     -170.283859      -55.009495
 C         -63.413216     -169.506989      -57.014091
 C         -62.363579     -168.820526      -57.651783
 C         -64.555557     -168.830048      -56.373848
 C         -62.978054     -167.974991      -58.777313
 C         -65.207970     -168.017685      -57.426140
 C         -64.088066     -167.089874      -58.132721
 H         -61.597733     -169.438919      -58.135784
 H         -61.823544     -168.302185      -56.894558
 H         -65.476334     -169.427322      -55.973774
 H         -64.289864     -168.147842      -55.539642
 H         -63.371243     -168.653732      -59.509483
 H         -62.052605     -167.478760      -59.102055
 H         -66.036118     -167.413269      -57.015839
 H         -65.747345     -168.729721      -58.176815
 H         -64.542023     -166.503983      -58.898735
 H         -63.725647     -166.364258      -57.379475
