20
 generated by VMD
 C         -23.320887      -53.341099      -13.280690
 N         -23.320944      -52.659359      -14.228621
 H         -20.719297      -54.913540      -14.490827
 H         -23.207373      -53.872425      -12.438070
 C         -19.638584      -54.779037      -13.961082
 C         -19.086756      -53.456009      -13.957743
 C         -18.547361      -55.863678      -14.150661
 C         -17.814377      -53.384003      -13.026134
 C         -17.268240      -55.796829      -13.274001
 C         -16.689108      -54.358078      -13.415197
 H         -19.873665      -52.762737      -13.536517
 H         -18.772945      -53.149014      -14.987000
 H         -19.047295      -56.819393      -13.981269
 H         -18.225637      -55.830864      -15.235045
 H         -17.991367      -53.612286      -11.974213
 H         -17.432251      -52.353333      -13.063758
 H         -16.571337      -56.593410      -13.524733
 H         -17.504562      -55.983063      -12.201298
 H         -15.837832      -54.192860      -12.771176
 H         -16.289991      -54.154816      -14.430356
