20
 generated by VMD
 C         -68.235298     -193.686798      -65.509590
 N         -68.163002     -194.802353      -65.182465
 H         -71.018623     -192.244980      -67.753365
 H         -68.262627     -192.669861      -65.713615
 C         -71.697327     -192.038345      -66.934387
 C         -72.016457     -190.730057      -66.309036
 C         -72.326996     -193.260300      -66.388268
 C         -73.543983     -190.665924      -66.207565
 C         -73.181091     -193.017670      -65.180946
 C         -74.162895     -191.928192      -65.451744
 H         -71.510773     -189.957947      -66.888199
 H         -71.494476     -190.703720      -65.359756
 H         -72.937706     -193.645828      -67.193840
 H         -71.660339     -194.040085      -66.088142
 H         -73.908340     -190.662674      -67.274124
 H         -73.717003     -189.698471      -65.680710
 H         -72.544182     -192.694794      -64.334343
 H         -73.794357     -193.930038      -64.835976
 H         -75.134666     -192.269409      -66.018250
 H         -74.482536     -191.631226      -64.512817
