20
 generated by VMD
 C         -46.758472     -125.129913      -38.305305
 N         -47.768768     -124.989105      -37.696003
 H         -44.673424     -122.325684      -37.681160
 H         -45.902477     -125.217384      -38.912941
 C         -44.734699     -122.254166      -38.716270
 C         -43.533443     -122.567848      -39.539040
 C         -45.713623     -121.413483      -39.452553
 C         -44.020390     -123.365211      -40.904552
 C         -46.109337     -122.115089      -40.757210
 C         -44.930828     -122.387756      -41.583851
 H         -42.892147     -123.181091      -38.765846
 H         -42.911167     -121.717117      -39.870205
 H         -46.568909     -121.228355      -38.842319
 H         -45.231308     -120.390671      -39.703186
 H         -44.327667     -124.372368      -40.492901
 H         -43.117260     -123.337967      -41.516087
 H         -46.823288     -121.567070      -41.354294
 H         -46.644329     -122.980293      -40.482826
 H         -45.332745     -122.937256      -42.463318
 H         -44.463947     -121.504997      -42.000637
