20
 generated by VMD
 C         -47.358208     -137.921310      -46.140289
 N         -47.252434     -137.215637      -47.068348
 H         -50.418739     -136.994461      -44.225674
 H         -47.331104     -138.423889      -45.215466
 C         -51.259197     -137.560883      -44.657864
 C         -51.403301     -138.197693      -46.011986
 C         -52.597767     -137.288162      -44.046223
 C         -52.204407     -139.482758      -46.018070
 C         -53.457176     -138.572357      -43.898689
 C         -53.565960     -139.296249      -45.295578
 H         -50.334068     -138.436462      -46.308514
 H         -51.870171     -137.546829      -46.713783
 H         -52.296593     -137.025467      -43.005024
 H         -53.014954     -136.370682      -44.623737
 H         -51.689316     -140.267471      -45.417709
 H         -52.394001     -139.672516      -47.052364
 H         -54.473804     -138.251526      -43.660812
 H         -52.989052     -139.414047      -43.212528
 H         -53.965755     -140.335968      -45.092598
 H         -54.276455     -138.619675      -45.792381
