20
 generated by VMD
 C         -29.604717      -88.446632      -25.957718
 N         -29.323906      -89.013832      -24.937029
 H         -31.329847      -90.084442      -27.656038
 H         -29.760202      -87.841187      -26.797262
 C         -32.385201      -89.816864      -27.493219
 C         -32.999382      -89.961418      -26.110376
 C         -33.279961      -89.417351      -28.567474
 C         -33.825111      -88.678146      -25.826679
 C         -34.024784      -88.080635      -28.324005
 C         -34.812119      -88.361206      -27.003645
 H         -32.190945      -89.905800      -25.428333
 H         -33.629852      -90.866638      -26.165733
 H         -32.544724      -89.528809      -29.366779
 H         -33.937691      -90.240814      -28.713963
 H         -33.014027      -87.814079      -25.620859
 H         -34.382286      -88.680466      -24.876274
 H         -34.599064      -87.757439      -29.194971
 H         -33.363396      -87.248970      -28.150227
 H         -35.375320      -87.396439      -26.743227
 H         -35.423962      -89.277000      -27.134098
