20
 generated by VMD
 C         -39.954208     -101.003365      -31.113728
 N         -40.406136      -99.990746      -31.428171
 H         -37.331608     -103.241219      -31.393280
 H         -39.406700     -101.782593      -30.644535
 C         -36.874935     -102.234734      -31.360094
 C         -36.340977     -101.715668      -32.730091
 C         -36.191391     -101.883224      -30.108328
 C         -35.989143     -100.284317      -32.530552
 C         -35.897312     -100.379227      -29.960115
 C         -35.264439      -99.894463      -31.232733
 H         -37.159081     -101.911530      -33.445965
 H         -35.431309     -102.296494      -32.957504
 H         -36.785172     -102.214638      -29.287037
 H         -35.343174     -102.610237      -30.049559
 H         -36.908428      -99.718506      -32.491783
 H         -35.337986      -99.835960      -33.308315
 H         -35.130825     -100.414474      -29.127279
 H         -36.735237      -99.834251      -29.689211
 H         -35.172874      -98.785652      -31.217680
 H         -34.214031     -100.364464      -31.287666
