20
 generated by VMD
 C         -51.634968     -145.940216      -43.916771
 N         -51.478001     -146.420746      -44.927967
 H         -54.005955     -145.537842      -47.015194
 H         -51.623184     -145.499466      -42.928501
 C         -53.864178     -144.688370      -47.683632
 C         -52.828094     -144.553146      -48.776169
 C         -54.829456     -143.459427      -47.443893
 C         -53.424015     -143.948715      -50.047485
 C         -55.385876     -143.040375      -48.772530
 C         -54.356640     -142.791031      -49.823776
 H         -52.411480     -145.594299      -48.903202
 H         -52.095837     -143.959045      -48.377563
 H         -55.701847     -143.797501      -46.849171
 H         -54.082203     -142.721985      -46.923153
 H         -54.036236     -144.788986      -50.581787
 H         -52.521328     -143.592911      -50.712795
 H         -56.037613     -142.081726      -48.585285
 H         -56.027061     -143.900360      -49.005741
 H         -54.798367     -142.483612      -50.730942
 H         -53.852276     -141.870056      -49.557114
