20
 generated by VMD
 C         -10.942380      -33.104687       -8.643671
 N         -10.809719      -33.974758       -9.314718
 H         -12.793241      -34.149651       -6.503542
 H         -13.078989      -34.904045       -4.875663
 C         -12.972683      -35.097687       -5.956420
 C         -11.676139      -35.878468       -6.183894
 C         -14.168386      -35.863567       -6.556345
 C         -11.707085      -37.239033       -5.583403
 C         -14.302978      -37.192459       -5.833867
 C         -13.014641      -37.981483       -5.983305
 H         -10.838655      -35.255741       -5.771497
 H         -11.500653      -35.928520       -7.274477
 H         -15.040177      -35.252922       -6.364587
 H         -14.135416      -35.842503       -7.672147
 H         -11.760920      -37.188541       -4.496979
 H         -10.822211      -37.848579       -5.883533
 H         -15.212574      -37.746246       -6.047093
 H         -14.368104      -36.911537       -4.708203
 H         -13.061785      -38.975101       -5.467385
 H         -12.852487      -38.273586       -7.027548
