20
 generated by VMD
 C         -50.089710     -128.641739      -43.458004
 N         -50.728485     -129.266159      -44.160080
 H         -48.842602     -128.175034      -39.752254
 H         -49.496559     -128.013504      -42.804413
 C         -47.898693     -128.245926      -40.243488
 C         -46.789913     -129.288635      -39.946564
 C         -47.269806     -126.946213      -40.835705
 C         -45.821243     -129.469666      -41.147091
 C         -46.282280     -127.289375      -42.048389
 C         -45.201782     -128.254059      -41.727642
 H         -47.313942     -130.128769      -39.618385
 H         -46.104424     -129.012589      -39.075832
 H         -48.025261     -126.257996      -41.362228
 H         -46.638477     -126.417099      -40.118530
 H         -46.270744     -130.183517      -41.867085
 H         -45.055252     -130.284760      -40.914764
 H         -45.887844     -126.295502      -42.372608
 H         -46.787151     -127.580780      -42.994511
 H         -44.581791     -128.577667      -42.598885
 H         -44.631634     -127.719658      -41.023945
