20
 generated by VMD
 C         -37.980576     -109.753906      -36.413792
 N         -37.435036     -108.872536      -35.913254
 H         -40.344357     -112.601364      -36.644451
 H         -38.585915     -110.638123      -36.787437
 C         -41.295353     -112.654716      -36.148228
 C         -42.378616     -113.586372      -36.550003
 C         -41.723312     -111.480865      -35.289799
 C         -43.044693     -114.084663      -35.212135
 C         -42.309315     -112.032120      -33.980953
 C         -43.489346     -112.907249      -34.305096
 H         -41.968597     -114.484093      -36.998028
 H         -43.092476     -113.057579      -37.157135
 H         -40.824711     -110.879860      -35.208199
 H         -42.487362     -110.914879      -35.888706
 H         -42.426468     -114.839600      -34.743458
 H         -43.916412     -114.564499      -35.433586
 H         -42.515965     -111.195312      -33.356693
 H         -41.675121     -112.602364      -33.317020
 H         -43.906338     -113.253593      -33.247139
 H         -44.283981     -112.327187      -34.726444
