20
 generated by VMD
 C         -39.733089     -116.709824      -34.794384
 N         -39.415726     -115.618034      -34.464008
 H         -41.392845     -116.221008      -37.595459
 H         -40.053024     -117.682388      -35.177864
 C         -42.484077     -115.910538      -37.749447
 C         -43.152462     -115.807030      -39.134331
 C         -43.288387     -115.823021      -36.487392
 C         -44.413494     -116.583626      -39.157249
 C         -44.608349     -116.656914      -36.627598
 C         -45.313293     -116.153282      -37.928238
 H         -42.487076     -116.016380      -40.014111
 H         -43.358414     -114.683510      -39.069859
 H         -42.807377     -116.184410      -35.674656
 H         -43.621609     -114.822166      -36.343697
 H         -44.234043     -117.664185      -39.131996
 H         -45.069710     -116.382454      -39.966644
 H         -45.246445     -116.503334      -35.717964
 H         -44.508640     -117.818848      -36.737858
 H         -46.341839     -116.647469      -37.981918
 H         -45.457691     -114.974251      -37.941963
