20
 generated by VMD
 C         -43.254406     -120.910225      -35.467651
 N         -42.788269     -120.802826      -34.447052
 H         -44.260864     -121.488998      -38.679798
 H         -43.491669     -121.185593      -36.538986
 C         -44.173233     -120.384399      -38.782364
 C         -43.063393     -119.782562      -39.602810
 C         -45.311226     -119.646858      -38.204151
 C         -43.830757     -118.985832      -40.741016
 C         -45.924160     -118.807083      -39.341461
 C         -44.836361     -118.012756      -40.142559
 H         -42.312901     -120.526611      -40.004292
 H         -42.565147     -118.865990      -39.098274
 H         -46.127499     -120.313019      -37.774097
 H         -45.030800     -118.942947      -37.381447
 H         -44.399773     -119.796318      -41.288944
 H         -43.135979     -118.518753      -41.393501
 H         -46.594738     -118.053093      -38.943897
 H         -46.293606     -119.441902      -40.101776
 H         -45.249428     -117.461365      -40.958237
 H         -44.183769     -117.483818      -39.445457
