20
 generated by VMD
 C         -61.061764     -155.573853      -54.875969
 N         -60.978218     -156.152649      -53.896263
 H         -59.080021     -155.152405      -51.789783
 H         -61.332111     -155.155792      -55.854961
 C         -58.036369     -155.302689      -51.539707
 C         -57.498894     -154.514694      -50.396389
 C         -57.143154     -155.830215      -52.631905
 C         -56.236473     -155.160919      -49.708782
 C         -55.953857     -156.498184      -51.843685
 C         -55.239292     -155.608810      -50.758617
 H         -58.198193     -154.372620      -49.605518
 H         -57.395802     -153.468582      -50.790413
 H         -57.501240     -156.663727      -53.204285
 H         -56.937634     -155.008835      -53.410168
 H         -56.516247     -156.063461      -49.136688
 H         -55.921623     -154.453491      -49.036236
 H         -55.219479     -156.744324      -52.524769
 H         -56.276794     -157.481522      -51.407314
 H         -54.433746     -156.105774      -50.245026
 H         -54.840424     -154.701080      -51.305565
