20
 generated by VMD
 C         -23.155361      -55.083820      -16.870626
 N         -23.662670      -55.006966      -15.753616
 H         -19.469620      -55.152576      -15.472628
 H         -22.602814      -55.278461      -17.744053
 C         -19.171236      -56.045593      -14.807082
 C         -19.514200      -55.884041      -13.374745
 C         -18.421223      -57.292324      -15.254802
 C         -20.360952      -57.144726      -12.866172
 C         -18.909502      -58.515522      -14.618724
 C         -19.906870      -58.548897      -13.411946
 H         -20.007198      -54.961773      -13.133343
 H         -18.561243      -55.918716      -12.826916
 H         -18.521696      -57.336555      -16.299885
 H         -17.332787      -57.143353      -15.122981
 H         -21.400126      -57.084988      -13.192884
 H         -20.303703      -57.141930      -11.731047
 H         -18.068542      -59.168461      -14.453860
 H         -19.442923      -59.150852      -15.385328
 H         -20.813173      -59.009060      -13.752048
 H         -19.435406      -59.171886      -12.615684
