20
 generated by VMD
 C         -30.445450      -74.492790      -21.079641
 N         -30.825342      -75.454895      -20.538786
 H         -27.267902      -74.802788      -19.429846
 H         -30.035381      -73.437279      -21.168085
 C         -26.848257      -74.562965      -20.366579
 C         -26.444599      -75.805145      -21.147327
 C         -25.944883      -73.335854      -20.422716
 C         -25.925676      -75.432320      -22.611130
 C         -25.518801      -72.940819      -21.806156
 C         -25.143473      -74.176910      -22.620323
 H         -27.367346      -76.563065      -21.230526
 H         -25.507088      -76.218597      -20.637562
 H         -26.548569      -72.570068      -19.841087
 H         -24.957289      -73.562393      -19.810053
 H         -26.801542      -75.282959      -23.220667
 H         -25.371706      -76.232956      -23.090626
 H         -24.774601      -72.194939      -21.638678
 H         -26.358835      -72.372345      -22.216564
 H         -24.721075      -73.780312      -23.548941
 H         -24.229803      -74.628983      -22.209770
