20
 generated by VMD
 C         -80.299210     -206.811172      -74.034302
 N         -80.575294     -206.845825      -75.136551
 H         -76.516792     -207.572250      -73.150612
 H         -80.021523     -206.955109      -72.964203
 C         -76.518402     -207.654480      -72.028038
 C         -75.362518     -206.939301      -71.374809
 C         -77.230003     -208.764679      -71.365433
 C         -75.471298     -206.816010      -69.848709
 C         -77.465569     -208.191528      -69.831123
 C         -76.205185     -207.958008      -69.084724
 H         -75.320869     -205.895294      -71.741508
 H         -74.487091     -207.371872      -71.839844
 H         -78.245911     -208.791504      -71.815079
 H         -76.806702     -209.804825      -71.517143
 H         -76.059898     -205.922760      -69.650993
 H         -74.430183     -206.620819      -69.594765
 H         -78.181946     -208.888992      -69.231621
 H         -78.004417     -207.220779      -69.862762
 H         -76.261185     -207.726898      -68.060036
 H         -75.562897     -208.861038      -69.075066
