20
 generated by VMD
 C         -27.958586      -87.275154      -27.133255
 N         -27.772362      -86.898132      -26.062021
 H         -31.294529      -88.337524      -25.333147
 H         -28.085480      -87.548759      -28.242422
 C         -32.270775      -88.545563      -25.781105
 C         -33.483009      -88.692642      -24.895941
 C         -32.373070      -88.449173      -27.249861
 C         -34.541039      -87.686958      -25.308926
 C         -33.556702      -87.662781      -27.669050
 C         -34.857582      -87.737885      -26.802767
 H         -33.091167      -88.471100      -23.857574
 H         -33.974174      -89.603432      -25.090403
 H         -31.475298      -87.872704      -27.652857
 H         -32.318577      -89.496727      -27.564444
 H         -34.288372      -86.711555      -24.985081
 H         -35.504272      -87.826248      -24.756674
 H         -33.827599      -88.085106      -28.620502
 H         -33.357853      -86.526215      -27.910292
 H         -35.541225      -86.864449      -26.960789
 H         -35.518818      -88.683899      -26.853199
