20
 generated by VMD
 C         -20.103039      -60.507946      -16.992823
 N         -19.124376      -60.141842      -17.480608
 H         -23.330830      -60.438995      -16.855135
 H         -20.934589      -60.750225      -16.467096
 C         -23.322412      -61.544373      -16.718052
 C         -23.270517      -62.387077      -17.996731
 C         -23.334606      -62.123821      -15.397633
 C         -23.603252      -63.928921      -17.734980
 C         -23.020552      -63.627796      -15.298127
 C         -23.979536      -64.270660      -16.294695
 H         -22.270523      -62.376431      -18.532923
 H         -24.186054      -62.083031      -18.714525
 H         -22.656878      -61.535221      -14.719812
 H         -24.441803      -62.002075      -15.086558
 H         -22.716240      -64.546432      -17.872259
 H         -24.274824      -64.242096      -18.502087
 H         -23.185564      -63.965321      -14.253798
 H         -21.975945      -63.953747      -15.406847
 H         -24.020578      -65.368599      -16.193277
 H         -25.045952      -63.964478      -16.021425
