20
 generated by VMD
 C         -28.407524      -82.438354      -26.463427
 N         -27.604239      -82.898766      -27.169235
 H         -30.847452      -84.222916      -26.487448
 H         -29.324894      -81.994049      -25.936489
 C         -31.443174      -84.674858      -25.787579
 C         -30.923143      -84.530403      -24.359005
 C         -32.100288      -86.005424      -26.159060
 C         -31.904024      -85.034752      -23.351784
 C         -32.986485      -86.583183      -25.058525
 C         -32.422455      -86.392868      -23.653324
 H         -30.646503      -83.514725      -24.165621
 H         -29.979580      -85.060913      -24.422361
 H         -32.496346      -85.819839      -27.127192
 H         -31.317673      -86.808746      -26.113657
 H         -32.753056      -84.332802      -23.252892
 H         -31.530310      -85.028465      -22.397541
 H         -33.266422      -87.615952      -25.317303
 H         -33.967045      -85.943932      -25.092796
 H         -33.328793      -86.591125      -23.117331
 H         -31.781446      -87.309570      -23.506546
