20
 generated by VMD
 C          -1.982555      -15.575631        1.784229
 N          -1.677545      -15.304864        2.827271
 H          -4.072937      -16.222540        0.129446
 H          -4.615860      -17.164316       -1.226045
 C          -4.920374      -16.781582       -0.253041
 C          -6.033617      -15.705965       -0.392635
 C          -5.286759      -17.830849        0.780361
 C          -7.313626      -16.371325       -0.876708
 C          -6.596641      -18.537113        0.308347
 C          -7.763367      -17.622236       -0.031709
 H          -5.712002      -14.986440       -1.212373
 H          -6.138369      -15.055231        0.466338
 H          -4.423213      -18.658701        0.862897
 H          -5.436280      -17.451963        1.876430
 H          -7.186219      -16.763750       -1.869443
 H          -8.085859      -15.642287       -0.974187
 H          -6.838479      -19.240623        1.100398
 H          -6.296128      -19.122196       -0.567254
 H          -8.621430      -18.078562       -0.538985
 H          -8.125070      -17.180243        0.932425
