20
 generated by VMD
 C         -41.741570     -102.236595      -33.957733
 N         -40.801693     -101.849899      -34.517426
 H         -39.225922     -103.656036      -32.503971
 H         -42.743729     -102.368874      -33.500450
 C         -38.310017     -103.917656      -32.135193
 C         -37.193844     -103.670143      -33.076927
 C         -38.137848     -104.731514      -30.957027
 C         -35.938732     -103.151680      -32.403347
 C         -36.864758     -104.296181      -30.193790
 C         -35.680752     -104.122734      -31.161173
 H         -37.392727     -102.864853      -33.756393
 H         -37.105633     -104.681213      -33.649902
 H         -39.048939     -104.678215      -30.378759
 H         -37.921268     -105.846184      -31.064785
 H         -36.132732     -102.213638      -31.907509
 H         -35.229237     -102.966148      -33.244610
 H         -36.604683     -105.224030      -29.489660
 H         -37.077145     -103.494446      -29.528704
 H         -34.867153     -103.662285      -30.523520
 H         -35.359959     -105.079391      -31.432627
