20
 generated by VMD
 C         -40.532822     -100.223740      -30.325603
 N         -41.353645     -100.510254      -29.541986
 H         -37.049763     -101.160034      -30.646658
 H         -39.638309      -99.872673      -30.959240
 C         -36.365574     -100.427261      -30.951311
 C         -36.273251     -100.054634      -32.315979
 C         -35.334827     -100.217148      -29.793858
 C         -35.252197      -98.895493      -32.461231
 C         -34.353828      -99.075180      -30.024065
 C         -34.014709      -98.932449      -31.466488
 H         -37.250603      -99.769096      -32.708965
 H         -35.943016     -100.976631      -32.776421
 H         -35.898155     -100.141396      -28.898230
 H         -34.834209     -101.192169      -29.767462
 H         -35.925346      -98.028778      -32.208317
 H         -34.974068      -98.660324      -33.464622
 H         -33.422890      -99.251938      -29.542257
 H         -34.841160      -98.078087      -29.662743
 H         -33.572056      -97.880203      -31.641808
 H         -33.420143      -99.750496      -31.824751
