20
 generated by VMD
 C          -1.695648      -13.864254        1.157254
 N          -1.835067      -12.813367        1.522037
 H          -3.674789      -17.269621        1.566645
 H          -4.092334      -17.139053       -0.028038
 C          -4.582437      -17.105978        0.951506
 C          -5.143224      -15.705020        1.144265
 C          -5.596823      -18.221680        0.899450
 C          -6.322123      -15.471769        0.228733
 C          -6.757233      -17.899635       -0.057083
 C          -7.393560      -16.543627        0.406662
 H          -4.437603      -14.934776        0.939065
 H          -5.462205      -15.606784        2.198350
 H          -4.961592      -19.183306        0.682667
 H          -5.984186      -18.465601        1.947181
 H          -6.013240      -15.366114       -0.890823
 H          -6.720144      -14.501724        0.619910
 H          -7.480342      -18.739059        0.138931
 H          -6.498189      -17.884369       -1.134120
 H          -8.174216      -16.226843       -0.287285
 H          -7.792179      -16.602907        1.420893
