20
 generated by VMD
 C         -38.044064     -109.855659      -36.290936
 N         -37.431423     -108.891289      -36.023449
 H         -40.706627     -112.515533      -37.080753
 H         -38.406601     -110.735619      -36.713104
 C         -41.268909     -112.858910      -36.203651
 C         -42.349861     -113.737869      -36.472824
 C         -41.567764     -111.710030      -35.183811
 C         -43.242035     -114.112984      -35.339592
 C         -42.412014     -112.138504      -34.071415
 C         -43.662407     -112.910683      -34.463947
 H         -42.067852     -114.732529      -36.879391
 H         -43.003891     -113.176071      -37.138332
 H         -40.512753     -111.577682      -34.993690
 H         -41.944099     -110.867104      -35.804085
 H         -42.741207     -114.921562      -34.789482
 H         -44.164280     -114.765991      -35.703583
 H         -42.631794     -111.209190      -33.418999
 H         -41.855202     -112.925308      -33.438965
 H         -44.286724     -113.180267      -33.692036
 H         -44.267975     -112.286514      -35.211037
