20
 generated by VMD
 C         -68.322922     -195.126190      -65.170547
 N         -68.816490     -195.846527      -64.438568
 H         -71.465225     -194.682632      -66.649796
 H         -67.860886     -194.567688      -66.001007
 C         -72.105415     -193.935425      -67.158394
 C         -71.896568     -192.492188      -66.643066
 C         -73.373764     -194.292419      -67.827209
 C         -73.200577     -191.844513      -66.039764
 C         -74.654907     -193.834305      -66.918457
 C         -74.534470     -192.373184      -66.503067
 H         -71.591934     -191.898163      -67.447296
 H         -71.187698     -192.611374      -65.736519
 H         -73.346321     -193.849182      -68.760658
 H         -73.498596     -195.367142      -67.781319
 H         -73.114235     -190.759384      -66.394485
 H         -73.250130     -191.858017      -64.951149
 H         -74.725281     -194.487335      -66.033714
 H         -75.636253     -193.983200      -67.472443
 H         -74.927063     -191.763260      -67.435066
 H         -75.293877     -192.258545      -65.656372
