20
 generated by VMD
 C         -62.596947     -172.213135      -55.126591
 N         -61.711178     -172.968719      -55.318718
 H         -61.583096     -171.052307      -58.433449
 H         -63.393764     -171.562103      -54.831791
 C         -62.494202     -170.431946      -58.331303
 C         -62.318733     -168.943161      -58.052135
 C         -63.839260     -171.140640      -58.454899
 C         -63.633423     -168.113617      -58.207016
 C         -64.995392     -170.294174      -58.610668
 C         -64.826607     -168.913544      -57.975407
 H         -61.584312     -168.571625      -58.712120
 H         -61.920612     -168.756882      -56.963161
 H         -63.848785     -171.840317      -59.272869
 H         -64.044327     -171.646149      -57.595074
 H         -63.499401     -167.779282      -59.242451
 H         -63.533985     -167.105316      -57.661808
 H         -65.961372     -170.760773      -58.281956
 H         -65.197861     -170.042816      -59.725887
 H         -65.601883     -168.292892      -58.390953
 H         -65.067490     -169.121979      -56.988960
