20
 generated by VMD
 C         -59.703812     -169.481842      -55.679665
 N         -59.765644     -168.546341      -54.950008
 H         -63.232796     -170.364960      -56.394470
 H         -59.642124     -170.435287      -56.194347
 C         -63.270840     -169.336105      -56.699680
 C         -62.719387     -168.872726      -58.094948
 C         -63.356789     -168.225464      -55.710014
 C         -63.560032     -167.675781      -58.623093
 C         -64.141281     -166.994598      -56.270008
 C         -63.451256     -166.532455      -57.543041
 H         -62.589787     -169.735611      -58.888615
 H         -61.657009     -168.557724      -57.903751
 H         -63.798687     -168.440948      -54.637688
 H         -62.346783     -167.707855      -55.517258
 H         -64.521294     -168.069092      -58.885368
 H         -63.067558     -167.258102      -59.471649
 H         -64.040024     -166.182037      -55.448750
 H         -65.325981     -167.212372      -56.328026
 H         -63.941418     -165.697449      -58.013855
 H         -62.443996     -166.186020      -57.455448
