20
 generated by VMD
 C         -77.484535     -202.924088      -69.305023
 N         -77.610092     -203.755539      -68.513809
 H         -74.854279     -201.666611      -67.120186
 H         -77.423805     -202.357864      -70.187874
 C         -74.488876     -201.130249      -67.958214
 C         -75.293159     -199.957886      -68.534233
 C         -73.792717     -202.146759      -68.900063
 C         -74.519424     -199.416779      -69.781334
 C         -73.169189     -201.524551      -70.093170
 C         -74.240898     -200.491135      -70.754921
 H         -75.583076     -199.171463      -67.871323
 H         -76.311256     -200.337479      -68.873428
 H         -73.166626     -202.824203      -68.278824
 H         -74.595055     -202.790924      -69.271576
 H         -73.672523     -198.778091      -69.570930
 H         -75.186417     -198.664322      -70.165169
 H         -72.856377     -202.212738      -70.892525
 H         -72.234444     -201.101929      -69.789345
 H         -73.781708     -200.191071      -71.674019
 H         -75.113396     -201.146164      -71.140633
