20
 generated by VMD
 C         -26.911472      -71.936043      -17.532043
 N         -27.228025      -73.005783      -17.302395
 H         -24.593550      -69.999153      -18.692049
 H         -26.349333      -70.928772      -17.812206
 C         -24.981411      -70.361542      -19.666180
 C         -24.325151      -71.569084      -20.271162
 C         -25.797560      -69.455734      -20.370113
 C         -25.099417      -72.173042      -21.510466
 C         -26.575169      -70.071404      -21.444357
 C         -25.888754      -71.124680      -22.288269
 H         -24.068052      -72.431702      -19.461813
 H         -23.332151      -71.330368      -20.844728
 H         -26.457991      -69.034370      -19.618362
 H         -25.151592      -68.638298      -20.807964
 H         -25.878321      -72.879410      -21.156218
 H         -24.436052      -72.753128      -22.121496
 H         -27.004200      -69.241005      -22.046024
 H         -27.474104      -70.519394      -20.931927
 H         -26.735365      -71.604279      -22.846294
 H         -25.191757      -70.551308      -22.867941
