20
 generated by VMD
 C         -56.887733     -150.641815      -47.938766
 N         -57.941784     -150.751328      -48.500885
 H         -53.845314     -148.714157      -47.374352
 H         -55.971180     -150.658249      -47.413319
 C         -54.236977     -148.544220      -48.341293
 C         -53.565521     -149.384476      -49.397129
 C         -54.638325     -147.089523      -48.733437
 C         -54.169384     -149.114594      -50.758755
 C         -55.379055     -147.063553      -50.040905
 C         -54.685265     -147.728317      -51.124256
 H         -53.597412     -150.478195      -49.174076
 H         -52.569279     -148.949448      -49.599323
 H         -55.313370     -146.821640      -47.923939
 H         -53.673569     -146.436905      -48.673244
 H         -55.029053     -149.818100      -50.719799
 H         -53.469284     -149.411499      -51.580563
 H         -55.628307     -146.146545      -50.467800
 H         -56.382591     -147.706924      -49.884785
 H         -55.393902     -148.032364      -51.888515
 H         -53.882458     -147.143829      -51.685501
