20
 generated by VMD
 C         -40.637318      -99.981712      -29.574133
 N         -40.155315     -100.201050      -28.537687
 H         -37.315243      -99.796829      -30.572641
 H         -41.002617      -99.919731      -30.576229
 C         -36.397316      -99.359947      -30.781822
 C         -35.909561      -99.261948      -32.233444
 C         -35.331295      -99.122780      -29.697935
 C         -34.806732      -98.240013      -32.471050
 C         -34.327560      -98.090164      -30.043196
 C         -33.757767      -98.363579      -31.374081
 H         -36.648323      -99.005142      -32.960064
 H         -35.701221     -100.355583      -32.329811
 H         -35.950695      -98.883911      -28.849409
 H         -34.784367     -100.085617      -29.370852
 H         -35.159428      -97.173691      -32.309372
 H         -34.265186      -98.265793      -33.424767
 H         -33.538052      -97.913338      -29.352196
 H         -34.800552      -97.066109      -29.898983
 H         -32.860409      -97.661797      -31.516020
 H         -33.329140      -99.304665      -31.278446
