20
 generated by VMD
 C         -50.341709     -145.153503      -45.170349
 N         -50.137882     -145.046982      -44.024532
 H         -53.229355     -143.424194      -45.913280
 H         -50.699005     -145.212692      -46.165379
 C         -53.470657     -143.060562      -46.890076
 C         -52.587868     -143.031342      -48.090908
 C         -54.692356     -142.186935      -46.876225
 C         -53.311882     -143.190277      -49.380005
 C         -55.423672     -142.365082      -48.225300
 C         -54.507584     -142.208084      -49.455452
 H         -51.849564     -143.834473      -47.822708
 H         -51.986240     -142.143036      -48.090111
 H         -55.291676     -142.650391      -46.079655
 H         -54.346733     -141.109360      -46.843975
 H         -53.730850     -144.226898      -49.391472
 H         -52.553871     -143.066071      -50.193344
 H         -56.295269     -141.613983      -48.136013
 H         -56.030109     -143.308792      -48.277981
 H         -55.164299     -142.451202      -50.286850
 H         -54.173603     -141.190445      -49.727169
