20
 generated by VMD
 C         -40.084713     -100.852783      -31.720934
 N         -40.739098     -100.145042      -31.033096
 H         -37.490631     -103.528130      -31.745874
 H         -39.234577     -101.419540      -32.182411
 C         -36.851883     -102.661705      -31.697374
 C         -35.889965     -102.109497      -32.594845
 C         -36.782410     -102.150856      -30.261921
 C         -35.771427     -100.617271      -32.590034
 C         -36.169388     -100.792946      -30.113070
 C         -35.390965     -100.212692      -31.222296
 H         -36.209209     -102.305046      -33.620342
 H         -34.944447     -102.565422      -32.510628
 H         -37.781910     -102.093712      -29.931177
 H         -36.197430     -102.832504      -29.609434
 H         -36.720978     -100.130112      -32.929775
 H         -34.997879     -100.212303      -33.212048
 H         -35.580822     -100.660660      -29.159941
 H         -36.945385     -100.060310      -29.990841
 H         -35.469364      -99.086426      -31.274712
 H         -34.319508     -100.323677      -30.999519
