20
 generated by VMD
 C         -40.023560     -100.965050      -31.839794
 N         -40.973789     -100.584389      -31.292225
 H         -37.728951     -103.553925      -32.326817
 H         -39.198471     -101.506989      -32.430851
 C         -37.289772     -102.666183      -31.924643
 C         -35.882999     -102.471031      -32.728092
 C         -37.173653     -102.371330      -30.537287
 C         -35.410976     -101.015411      -32.575092
 C         -36.632023     -100.956177      -30.195551
 C         -35.244362     -100.734383      -31.030144
 H         -36.066242     -102.656982      -33.826633
 H         -35.099590     -103.151657      -32.293041
 H         -38.133587     -102.438835      -30.052454
 H         -36.547058     -103.252640      -30.142492
 H         -36.048214     -100.239876      -32.867218
 H         -34.387737     -100.829521      -33.020512
 H         -36.384617     -100.866806      -29.112896
 H         -37.300888     -100.238060      -30.486219
 H         -34.858891      -99.741280      -30.863115
 H         -34.464741     -101.484009      -30.751247
