20
 generated by VMD
 C         -58.333115     -165.406967      -56.202637
 N         -57.426350     -165.915421      -56.701668
 H         -60.806557     -164.696289      -53.996067
 H         -59.136826     -164.869568      -55.771736
 C         -61.301056     -165.078827      -54.858517
 C         -61.751690     -166.473190      -54.949356
 C         -61.961361     -163.993835      -55.684502
 C         -63.227261     -166.558121      -55.009727
 C         -63.449497     -164.164490      -55.740631
 C         -63.849308     -165.640167      -56.153351
 H         -61.304653     -166.965790      -54.001480
 H         -61.163624     -167.021408      -55.654549
 H         -61.689682     -163.143097      -55.125179
 H         -61.418755     -163.907745      -56.711369
 H         -63.744240     -166.189453      -54.042030
 H         -63.682842     -167.558395      -55.274319
 H         -63.869980     -163.507294      -56.428524
 H         -64.005623     -164.016327      -54.780361
 H         -64.940437     -165.687088      -56.172455
 H         -63.526878     -165.939438      -57.108738
