20
 generated by VMD
 C         -47.825649     -139.632385      -46.011841
 N         -46.703827     -139.182480      -46.088619
 H         -50.871357     -138.978973      -44.644085
 H         -48.881138     -139.999359      -46.008862
 C         -51.787991     -139.082748      -45.221718
 C         -51.913849     -139.380096      -46.743004
 C         -53.175121     -138.825104      -44.580128
 C         -53.032440     -140.361511      -47.080528
 C         -54.225483     -139.829010      -44.935715
 C         -54.415894     -140.028000      -46.424316
 H         -50.945309     -139.769943      -47.046780
 H         -52.145271     -138.445618      -47.295570
 H         -52.987831     -138.766220      -43.454655
 H         -53.667137     -137.906372      -45.006046
 H         -52.723236     -141.341019      -46.792915
 H         -53.239201     -140.449783      -48.167702
 H         -55.157101     -139.578522      -44.377121
 H         -53.943150     -140.895416      -44.699635
 H         -55.080536     -140.939880      -46.485783
 H         -54.707710     -139.090866      -46.833115
