20
 generated by VMD
 C         -40.466858     -118.839607      -35.507992
 N         -39.560322     -118.289177      -34.998287
 H         -43.349762     -116.584549      -36.043118
 H         -41.410927     -119.062973      -36.000980
 C         -43.869244     -116.927429      -36.967495
 C         -43.038773     -117.385750      -38.112690
 C         -45.169437     -116.293274      -37.415199
 C         -43.761665     -118.205032      -39.144100
 C         -45.843601     -117.110352      -38.588680
 C         -44.998581     -117.498932      -39.722946
 H         -42.317959     -118.141563      -37.714699
 H         -42.525063     -116.423874      -38.461777
 H         -45.839378     -116.145630      -36.524933
 H         -44.872875     -115.361130      -37.779301
 H         -44.017365     -119.120064      -38.642143
 H         -43.181297     -118.345078      -40.084633
 H         -46.711124     -116.543976      -38.963398
 H         -46.286358     -117.890137      -38.062637
 H         -45.527786     -118.287758      -40.279465
 H         -44.745819     -116.611954      -40.383163
