20
 generated by VMD
 C          -3.758311      -17.907743        1.943985
 N          -3.113067      -18.434544        2.688026
 H          -5.653180      -20.547846        0.551561
 H          -6.045707      -21.280392       -0.944987
 C          -6.163100      -20.347914       -0.409786
 C          -5.494613      -19.096479       -1.113880
 C          -7.627701      -20.013653       -0.140223
 C          -6.282547      -18.485353       -2.302980
 C          -8.345447      -19.357857       -1.299731
 C          -7.720746      -18.144096       -1.930296
 H          -4.510343      -19.356998       -1.319405
 H          -5.372179      -18.310991       -0.323257
 H          -8.195231      -20.982481        0.224840
 H          -7.731432      -19.345703        0.787500
 H          -6.255472      -19.206947       -3.172143
 H          -5.769048      -17.540041       -2.694026
 H          -9.367357      -19.058773       -1.022465
 H          -8.473237      -20.163778       -2.092985
 H          -8.312357      -17.738356       -2.761428
 H          -7.692791      -17.357086       -1.184964
