20
 generated by VMD
 C         -63.161114     -174.848541      -54.929626
 N         -62.881035     -174.287338      -55.930336
 H         -64.588188     -173.314560      -57.914913
 H         -63.323067     -175.490555      -54.053764
 C         -64.356430     -172.354630      -58.329960
 C         -64.537338     -171.124664      -57.470806
 C         -64.385101     -172.390228      -59.816818
 C         -63.837734     -169.917526      -58.198421
 C         -63.842941     -171.009064      -60.478165
 C         -64.370201     -169.813965      -59.675835
 H         -64.080971     -171.156479      -56.397808
 H         -65.539742     -170.841202      -57.351059
 H         -63.743088     -173.224274      -60.284695
 H         -65.374023     -172.606461      -60.328194
 H         -62.700760     -170.163132      -58.161472
 H         -63.945137     -168.975204      -57.614971
 H         -64.197845     -170.945374      -61.491264
 H         -62.761253     -171.046204      -60.420258
 H         -64.016174     -168.886993      -60.243225
 H         -65.446693     -169.820023      -59.783127
