20
 generated by VMD
 C          -9.312584      -24.621408        1.026040
 N          -9.860546      -25.358450        1.652975
 H          -6.752454      -23.347126       -0.738389
 H          -8.355220      -22.630800       -1.484801
 C          -7.323489      -23.066593       -1.668887
 C          -7.498206      -24.334682       -2.405154
 C          -6.606922      -21.970238       -2.433245
 C          -7.933592      -24.102619       -3.806886
 C          -7.051972      -21.758072       -3.879787
 C          -7.169283      -23.101639       -4.579483
 H          -8.118052      -24.980480       -1.882453
 H          -6.615133      -24.954418       -2.518717
 H          -6.665266      -21.028223       -1.908907
 H          -5.517309      -22.230894       -2.391874
 H          -8.984923      -23.725023       -3.814126
 H          -8.065595      -25.077105       -4.357472
 H          -6.461401      -21.060093       -4.490730
 H          -8.049890      -21.294840       -3.779732
 H          -7.580555      -23.074463       -5.580621
 H          -6.124154      -23.436075       -4.655853
