20
 generated by VMD
 C         -63.027748     -172.358032      -55.141556
 N         -62.520477     -173.412369      -55.148102
 H         -61.631706     -171.377899      -58.462284
 H         -63.337471     -171.349060      -55.249783
 C         -62.511402     -170.772507      -58.633316
 C         -62.390736     -169.402939      -58.100201
 C         -63.753117     -171.429260      -59.086979
 C         -63.604977     -168.592911      -57.958092
 C         -64.937805     -170.531738      -59.131229
 C         -64.851463     -169.483673      -58.020905
 H         -61.722816     -168.934006      -58.738087
 H         -61.872963     -169.419998      -57.015186
 H         -63.298885     -171.851166      -60.012016
 H         -63.944775     -172.242340      -58.410442
 H         -63.634960     -167.849640      -58.679420
 H         -63.649353     -168.012238      -57.076843
 H         -65.872902     -171.026474      -59.150345
 H         -64.997414     -169.939743      -60.023296
 H         -65.736404     -168.763550      -58.231007
 H         -65.111725     -169.934647      -57.009750
