20
 generated by VMD
 C         -39.440273     -105.596741      -37.211704
 N         -40.576008     -105.362762      -37.077957
 H         -39.474583     -107.963684      -35.350956
 H         -38.362473     -105.787811      -37.177513
 C         -39.522636     -108.374893      -34.312881
 C         -38.437244     -108.662086      -33.402653
 C         -40.545235     -109.463852      -34.208515
 C         -38.843891     -108.677437      -31.874090
 C         -41.235649     -109.472069      -32.842163
 C         -40.046719     -109.662506      -31.670061
 H         -37.659863     -107.970123      -33.490486
 H         -38.017467     -109.654724      -33.593147
 H         -41.302399     -109.237892      -34.923492
 H         -39.941124     -110.315941      -34.576061
 H         -39.339149     -107.713280      -31.633413
 H         -38.047268     -108.853699      -31.200443
 H         -41.986782     -110.253830      -32.781994
 H         -41.623718     -108.491089      -32.581230
 H         -40.398743     -109.531059      -30.701559
 H         -39.653488     -110.709709      -31.768713
