20
 generated by VMD
 C         -19.340635      -60.678871      -17.824751
 N         -20.192762      -59.835026      -17.790728
 H         -22.617037      -60.137661      -15.890762
 H         -18.830633      -61.556671      -17.741211
 C         -23.219870      -60.992702      -16.065672
 C         -23.127874      -61.604893      -17.458864
 C         -23.721582      -61.836086      -14.958367
 C         -22.732853      -63.068729      -17.429562
 C         -22.988295      -63.264133      -14.893598
 C         -23.279251      -63.915676      -16.216669
 H         -22.319996      -61.039600      -17.940872
 H         -24.124912      -61.537926      -18.013908
 H         -23.474197      -61.282219      -14.136552
 H         -24.792303      -61.998703      -15.037378
 H         -21.639072      -63.263100      -17.537128
 H         -23.248919      -63.556343      -18.255466
 H         -23.280138      -63.903679      -14.037986
 H         -21.904697      -63.081348      -14.684273
 H         -22.943563      -64.951874      -16.311798
 H         -24.360928      -63.905956      -16.484999
