20
 generated by VMD
 C         -19.769138      -58.533089      -17.222034
 N         -19.248306      -58.807247      -18.231813
 H         -22.468525      -59.691418      -16.551332
 H         -19.892391      -58.168812      -16.084251
 C         -22.704344      -60.741997      -16.162136
 C         -23.575335      -61.561966      -17.077398
 C         -22.663673      -61.244671      -14.775043
 C         -23.464703      -63.120468      -16.985819
 C         -22.091833      -62.637608      -14.808256
 C         -23.085264      -63.535534      -15.566862
 H         -23.337978      -61.308361      -18.129244
 H         -24.668070      -61.166050      -16.943678
 H         -22.090519      -60.566204      -14.037510
 H         -23.665817      -61.052208      -14.373463
 H         -22.692389      -63.464264      -17.707924
 H         -24.495802      -63.561443      -17.218418
 H         -21.828043      -63.101700      -13.805801
 H         -21.085814      -62.753242      -15.217216
 H         -22.887974      -64.627991      -15.546833
 H         -23.989901      -63.377270      -15.019454
