20
 generated by VMD
 C         -67.784286     -185.809540      -67.237259
 N         -68.777306     -186.199631      -67.742592
 H         -68.677742     -188.019394      -64.721779
 H         -66.858894     -185.429626      -66.884872
 C         -69.309669     -187.767380      -63.823151
 C         -68.874886     -186.703461      -62.824299
 C         -70.706848     -188.183517      -63.924458
 C         -69.483070     -187.066086      -61.486767
 C         -71.356583     -188.383713      -62.545464
 C         -71.040192     -187.139359      -61.657879
 H         -69.332848     -185.758423      -63.113945
 H         -67.821510     -186.742859      -62.667507
 H         -71.127480     -187.366867      -64.527702
 H         -70.683167     -189.209351      -64.447586
 H         -69.149254     -186.243744      -60.881920
 H         -69.032280     -187.950668      -60.918221
 H         -70.835922     -189.133789      -62.038021
 H         -72.377991     -188.660721      -62.601242
 H         -71.638947     -186.318527      -62.220806
 H         -71.479912     -187.133286      -60.666916
