20
 generated by VMD
 C         -38.563034     -108.036652      -37.375938
 N         -38.946548     -107.141991      -38.011139
 H         -40.343044     -108.291794      -35.033958
 H         -38.258884     -108.712082      -36.608658
 C         -40.596920     -109.312691      -34.589443
 C         -39.617489     -110.429276      -34.393070
 C         -42.075611     -109.377274      -34.024315
 C         -39.781361     -111.226753      -33.168903
 C         -42.130043     -110.239204      -32.793587
 C         -41.299438     -111.542465      -32.826908
 H         -38.642544     -109.895134      -34.301445
 H         -39.757675     -110.969711      -35.317806
 H         -42.428017     -108.353676      -33.824104
 H         -42.761536     -109.767242      -34.837254
 H         -39.483009     -110.633408      -32.361156
 H         -39.166466     -112.174301      -33.154003
 H         -43.171597     -110.538330      -32.418495
 H         -41.795532     -109.667519      -31.932447
 H         -41.420807     -112.145859      -31.786036
 H         -41.725197     -112.179321      -33.593647
