20
 generated by VMD
 C          -2.479797       -9.776073        0.017621
 N          -2.105870       -8.804721        0.343654
 H          -2.165184      -11.269447        2.473917
 H          -2.439913      -12.160548        4.118078
 C          -2.772224      -12.015256        3.050678
 C          -2.497510      -13.381516        2.428805
 C          -4.247592      -11.511833        2.921823
 C          -3.553583      -14.416225        2.824068
 C          -5.222258      -12.646957        3.396843
 C          -4.997591      -13.923611        2.664768
 H          -1.486802      -13.715661        2.753341
 H          -2.530528      -13.260384        1.331999
 H          -4.335123      -10.619677        3.592902
 H          -4.455821      -11.099018        1.920977
 H          -3.413003      -14.621443        3.901711
 H          -3.396261      -15.339839        2.178077
 H          -6.247310      -12.356144        3.234571
 H          -5.032000      -12.781755        4.443848
 H          -5.754143      -14.684574        2.885929
 H          -5.087465      -13.635756        1.584316
