20
 generated by VMD
 C         -21.443848      -65.445618      -17.163916
 N         -20.771351      -65.842476      -16.293894
 H         -24.362844      -63.596863      -18.019644
 H         -22.088036      -65.156006      -17.909445
 C         -24.496614      -64.677147      -18.291748
 C         -24.489370      -65.093277      -19.712521
 C         -25.171339      -65.528725      -17.160652
 C         -24.302311      -66.613266      -19.816679
 C         -24.893484      -67.058372      -17.447943
 C         -25.149719      -67.438843      -18.824472
 H         -23.769745      -64.492699      -20.111523
 H         -25.420549      -64.854614      -20.266968
 H         -24.646330      -65.305695      -16.099197
 H         -26.301474      -65.353439      -17.086536
 H         -23.211378      -66.730049      -19.792097
 H         -24.564188      -66.901947      -20.848335
 H         -25.565456      -67.652580      -16.814291
 H         -23.888941      -67.242355      -17.110750
 H         -25.100708      -68.501305      -18.978361
 H         -26.182280      -67.201324      -19.051937
