20
 generated by VMD
 C         -12.361085      -27.466722       -4.645823
 N         -13.188347      -28.190510       -4.883229
 H         -10.899855      -30.291147       -2.687238
 H         -11.007118      -28.763105       -3.721067
 C         -10.260066      -29.543016       -3.334022
 C          -9.603292      -30.323122       -4.494936
 C          -9.121751      -28.947660       -2.392941
 C          -8.658134      -29.313715       -5.331816
 C          -8.238802      -27.968718       -3.217291
 C          -7.558236      -28.714474       -4.388856
 H         -10.402054      -30.681427       -5.217955
 H          -8.996914      -31.114597       -4.124082
 H          -9.601897      -28.367212       -1.624761
 H          -8.539967      -29.808216       -1.996558
 H          -9.300078      -28.528477       -5.762737
 H          -8.214086      -29.910955       -6.142939
 H          -7.385653      -27.612972       -2.554060
 H          -8.798529      -27.147469       -3.646703
 H          -6.854057      -28.076944       -4.886741
 H          -6.835686      -29.447062       -3.928312
