20
 generated by VMD
 C          -1.086244      -13.343091        0.893670
 N          -0.384716      -13.127476        0.018166
 H          -4.545652      -13.090062        1.908204
 H          -5.734404      -13.441384        0.632854
 C          -5.157031      -13.879781        1.479885
 C          -6.189999      -14.388394        2.523636
 C          -4.343613      -15.011354        0.912631
 C          -7.054402      -15.548532        2.036910
 C          -5.196323      -16.203756        0.400825
 C          -6.244331      -16.650429        1.491728
 H          -6.859674      -13.567446        2.796156
 H          -5.612025      -14.817081        3.399935
 H          -3.668193      -14.707574        0.130883
 H          -3.844867      -15.370932        1.764339
 H          -7.832264      -15.158120        1.319006
 H          -7.549135      -15.933558        2.947847
 H          -4.486756      -17.041908        0.170969
 H          -5.778814      -15.965391       -0.518418
 H          -6.933560      -17.290485        0.908823
 H          -5.697173      -17.254799        2.230443
