20
 generated by VMD
 C         -40.938286     -100.830750      -32.817127
 N         -41.721573     -101.251480      -32.075436
 H         -38.304737     -103.408798      -32.278061
 H         -40.404068     -100.281860      -33.576450
 C         -37.401657     -102.873703      -32.073868
 C         -36.231197     -102.691986      -32.975220
 C         -37.198692     -102.839745      -30.442902
 C         -35.192501     -101.687004      -32.334778
 C         -36.335796     -101.615295      -29.998013
 C         -34.982620     -101.719353      -30.843973
 H         -36.644951     -102.386078      -33.993492
 H         -35.764286     -103.687737      -33.032513
 H         -38.130390     -102.722328      -29.988478
 H         -36.738472     -103.765938      -30.009880
 H         -35.562847     -100.742760      -32.758862
 H         -34.184669     -101.887978      -32.911884
 H         -36.304222     -101.710464      -28.837992
 H         -36.892376     -100.759781      -30.264339
 H         -34.212399     -100.912781      -30.552116
 H         -34.501183     -102.653175      -30.505596
