20
 generated by VMD
 C         -36.733315      -97.834938      -26.564135
 N         -35.913353      -98.284538      -25.838247
 H         -36.293182      -95.191902      -28.411289
 H         -37.309711      -97.514542      -27.327610
 C         -35.454128      -95.310478      -29.122463
 C         -35.678974      -96.223679      -30.336288
 C         -34.176647      -94.473480      -29.021967
 C         -35.276081      -95.505371      -31.640110
 C         -33.886833      -93.907234      -30.408672
 C         -33.968216      -94.773048      -31.598829
 H         -36.741276      -96.369995      -30.318060
 H         -35.278431      -97.220032      -30.334877
 H         -34.272446      -93.600403      -28.342482
 H         -33.504532      -95.246658      -28.704653
 H         -36.112289      -94.802589      -31.801022
 H         -35.395512      -96.232620      -32.402027
 H         -32.881077      -93.349762      -30.410587
 H         -34.657761      -93.245811      -30.678526
 H         -33.894001      -94.203712      -32.707596
 H         -33.197044      -95.498810      -31.622620
