20
 generated by VMD
 C         -79.301727     -204.630234      -70.741837
 N         -80.317772     -205.158463      -70.731697
 H         -76.834305     -203.226669      -68.706627
 H         -78.425667     -204.073669      -70.995354
 C         -75.831429     -202.984909      -69.214996
 C         -75.672218     -202.100327      -70.412140
 C         -74.760712     -203.983978      -68.838722
 C         -74.205811     -201.501556      -70.380386
 C         -73.328835     -203.670883      -69.188255
 C         -73.199341     -202.562851      -70.278427
 H         -76.362137     -201.330276      -70.180786
 H         -75.890976     -202.669815      -71.349510
 H         -74.837708     -204.265076      -67.774475
 H         -74.990669     -204.896332      -69.361153
 H         -74.059456     -200.859726      -69.524750
 H         -74.122597     -200.945023      -71.328110
 H         -72.781464     -204.657913      -69.345276
 H         -72.872452     -203.253479      -68.360954
 H         -72.208855     -202.179092      -70.158455
 H         -73.148476     -202.987289      -71.278030
