20
 generated by VMD
 C          -3.579511      -20.029449        3.398206
 N          -4.042172      -19.085022        3.031259
 H          -5.318127      -19.533436       -0.002561
 H          -6.012091      -21.114977       -0.645653
 C          -6.037429      -20.013645       -0.691898
 C          -5.687402      -19.524769       -2.171863
 C          -7.413071      -19.509907       -0.290346
 C          -6.836801      -19.729090       -3.222890
 C          -8.462183      -19.622042       -1.382017
 C          -8.108324      -19.013474       -2.705522
 H          -4.793259      -20.096056       -2.514270
 H          -5.430174      -18.504654       -2.107813
 H          -7.778283      -19.983673        0.645208
 H          -7.278072      -18.420042        0.040871
 H          -7.110054      -20.852188       -3.220330
 H          -6.524265      -19.431149       -4.252944
 H          -9.368685      -19.163836       -0.963581
 H          -8.674223      -20.700567       -1.410359
 H          -8.881968      -19.219858       -3.442145
 H          -7.956577      -17.959452       -2.601958
