20
 generated by VMD
 C         -60.153816     -157.423126      -55.978859
 N         -59.945812     -157.878754      -57.007969
 H         -60.106499     -157.385086      -52.705975
 H         -60.231106     -157.062515      -54.948906
 C         -59.231857     -158.016693      -52.815357
 C         -57.953442     -157.704987      -52.239498
 C         -59.485222     -159.482574      -53.063030
 C         -57.652775     -158.468491      -50.979656
 C         -59.223946     -160.397461      -51.863369
 C         -57.821735     -160.069366      -51.329205
 H         -57.977856     -156.625473      -51.886425
 H         -57.060108     -157.817535      -52.920868
 H         -60.562302     -159.663544      -53.314304
 H         -58.870380     -159.677811      -53.894466
 H         -58.279366     -158.130417      -50.086182
 H         -56.605049     -158.441772      -50.511608
 H         -59.156731     -161.475311      -52.209442
 H         -60.146248     -160.398331      -51.202675
 H         -57.596096     -160.859848      -50.518845
 H         -57.092411     -160.285034      -52.185333
