20
 generated by VMD
 C         -22.951654      -55.233452      -15.098515
 N         -22.795130      -55.077354      -16.214174
 H         -19.233564      -54.319626      -15.407869
 H         -22.884495      -55.373981      -14.110416
 C         -19.442516      -55.251717      -14.763231
 C         -18.870178      -55.139843      -13.445820
 C         -19.558611      -56.551922      -15.460434
 C         -19.437113      -56.231236      -12.601231
 C         -19.281710      -57.800934      -14.582728
 C         -19.018900      -57.624184      -13.046740
 H         -19.192919      -54.192982      -12.964385
 H         -17.765594      -55.087276      -13.492322
 H         -20.588697      -56.479790      -15.937823
 H         -18.969519      -56.689716      -16.395622
 H         -20.544046      -56.204987      -12.537080
 H         -19.088583      -56.004967      -11.620276
 H         -18.383192      -58.282566      -15.005133
 H         -20.131027      -58.422142      -14.688415
 H         -19.487621      -58.408302      -12.405405
 H         -17.961199      -57.700466      -12.813089
