20
 generated by VMD
 C         -55.762684     -149.037613      -45.635155
 N         -55.216499     -149.672394      -44.793701
 H         -54.448288     -148.270523      -48.255329
 H         -56.055885     -148.427979      -46.474548
 C         -54.274082     -147.337067      -48.870670
 C         -53.121475     -147.258041      -49.832993
 C         -54.904354     -146.081848      -48.496346
 C         -53.510353     -146.503021      -51.147820
 C         -55.196045     -145.093124      -49.762241
 C         -53.977570     -144.976105      -50.758976
 H         -52.756100     -148.238022      -50.177353
 H         -52.358891     -146.779739      -49.332809
 H         -55.835289     -146.253540      -47.889694
 H         -54.254208     -145.539612      -47.842564
 H         -54.133762     -147.030273      -51.856773
 H         -52.520699     -146.383301      -51.552544
 H         -55.442566     -144.183395      -49.401154
 H         -56.109524     -145.440353      -50.350048
 H         -54.306980     -144.359909      -51.600212
 H         -53.075733     -144.563644      -50.164810
