20
 generated by VMD
 C         -61.579994     -156.005890      -54.588055
 N         -60.951874     -155.287155      -53.931606
 H         -58.820480     -154.908203      -52.015446
 H         -62.136494     -156.635742      -55.224880
 C         -57.844082     -155.149689      -51.562275
 C         -57.511200     -154.507111      -50.267128
 C         -56.749695     -155.582886      -52.487946
 C         -56.251289     -155.019211      -49.692028
 C         -55.603283     -156.160309      -51.790737
 C         -55.098892     -155.264023      -50.752968
 H         -58.400970     -154.618942      -49.574223
 H         -57.322826     -153.394333      -50.439114
 H         -57.231911     -156.354263      -53.125889
 H         -56.267693     -154.809464      -53.090965
 H         -56.481598     -155.999680      -49.221619
 H         -55.864628     -154.371109      -48.850117
 H         -54.841648     -156.366989      -52.590729
 H         -55.684830     -157.150772      -51.311680
 H         -54.257229     -155.790268      -50.154640
 H         -54.675774     -154.406769      -51.178059
