20
 generated by VMD
 C         -78.078926     -203.407364      -69.513824
 N         -78.748726     -204.303482      -69.334267
 H         -75.906197     -202.291138      -67.852028
 H         -77.371468     -202.611359      -69.850838
 C         -74.995705     -201.736282      -68.317062
 C         -74.878906     -200.219879      -68.561401
 C         -73.791840     -202.473877      -68.765251
 C         -74.792206     -200.046692      -70.113808
 C         -72.915634     -201.771164      -69.858063
 C         -73.878807     -200.974457      -70.830315
 H         -74.044319     -199.771652      -68.102470
 H         -75.791733     -199.737320      -68.073029
 H         -73.205879     -202.543427      -67.864449
 H         -74.077118     -203.431122      -69.063683
 H         -74.608398     -198.988174      -70.323700
 H         -75.820503     -200.258957      -70.390533
 H         -72.300476     -202.509293      -70.455040
 H         -72.313629     -201.109818      -69.182610
 H         -73.231285     -200.484238      -71.516212
 H         -74.390503     -201.819199      -71.398628
