20
 generated by VMD
 C         -12.881706      -27.195715       -2.271051
 N         -11.909575      -27.538021       -1.813699
 H         -10.461324      -26.126465       -4.548214
 H          -8.879736      -26.031452       -5.416156
 C          -9.368001      -26.408796       -4.519506
 C          -9.051334      -27.917948       -4.373987
 C          -8.791854      -25.632702       -3.322140
 C          -7.528382      -28.193638       -4.371624
 C          -7.283546      -25.916513       -3.117069
 C          -6.864032      -27.420483       -3.192110
 H          -9.372454      -28.503365       -5.214958
 H          -9.539911      -28.242613       -3.430169
 H          -8.981183      -24.572657       -3.541963
 H          -9.383498      -25.803068       -2.412433
 H          -7.087410      -27.912600       -5.329364
 H          -7.398553      -29.222424       -4.132635
 H          -7.074423      -25.543451       -2.085893
 H          -6.717987      -25.393559       -3.887849
 H          -5.786272      -27.393850       -3.360005
 H          -7.094046      -27.947590       -2.211721
