20
 generated by VMD
 C         -40.949772     -101.056122      -32.880611
 N         -42.023663     -101.481209      -32.666176
 H         -38.523766     -102.941307      -32.466465
 H         -39.847435     -100.915787      -32.844772
 C         -37.538124     -102.767906      -32.033703
 C         -36.322365     -102.829735      -32.833900
 C         -37.442165     -102.796021      -30.545036
 C         -35.298664     -101.848152      -32.312252
 C         -36.157677     -102.148773      -30.036390
 C         -34.915432     -102.223717      -30.950108
 H         -36.605671     -102.589104      -33.921066
 H         -35.844086     -103.834648      -32.919003
 H         -38.120811     -102.233330      -30.037542
 H         -37.625065     -103.831772      -30.179268
 H         -35.852444     -100.902206      -32.360184
 H         -34.307732     -101.769005      -32.899597
 H         -36.151722     -102.675377      -28.982170
 H         -36.259876     -101.104950      -29.790648
 H         -34.127182     -101.531670      -30.577871
 H         -34.666950     -103.258606      -30.828339
