20
 generated by VMD
 C         -12.341470      -27.492384       -4.633832
 N         -13.159827      -28.188028       -4.931387
 H         -10.949102      -30.297354       -2.744901
 H         -10.809882      -28.702314       -3.657910
 C         -10.229884      -29.588182       -3.312958
 C          -9.629305      -30.280897       -4.535886
 C          -9.166586      -28.972685       -2.449810
 C          -8.661547      -29.373266       -5.305305
 C          -8.309608      -28.029051       -3.245973
 C          -7.546879      -28.758320       -4.347306
 H         -10.426573      -30.786032       -5.137242
 H          -9.092194      -31.159491       -4.191118
 H          -9.564592      -28.539930       -1.548853
 H          -8.449187      -29.738459       -2.050810
 H          -9.199211      -28.533224       -5.765387
 H          -8.176178      -29.846523       -6.148642
 H          -7.667555      -27.415148       -2.549300
 H          -8.975171      -27.247925       -3.645734
 H          -7.004465      -28.031706       -4.920402
 H          -6.964365      -29.663336       -4.006374
