20
 generated by VMD
 C         -38.721752      -99.120483      -27.091309
 N         -37.750393      -99.131187      -26.457157
 H         -37.038841      -97.356926      -30.062649
 H         -39.658642      -99.052734      -27.512745
 C         -36.166855      -96.992050      -30.466261
 C         -35.471607      -97.504623      -31.634829
 C         -35.300533      -96.171280      -29.542200
 C         -34.422428      -96.540627      -32.278469
 C         -34.133377      -95.367821      -30.172701
 C         -33.359070      -96.264923      -31.118731
 H         -36.257248      -97.575066      -32.397392
 H         -34.987335      -98.430206      -31.414593
 H         -36.081760      -95.558258      -29.053909
 H         -34.930752      -96.699280      -28.663584
 H         -34.666836      -95.547729      -32.581161
 H         -33.944145      -96.883675      -33.175072
 H         -33.499840      -94.922310      -29.404081
 H         -34.549080      -94.479568      -30.625608
 H         -32.515697      -95.864189      -31.601120
 H         -32.903294      -97.156075      -30.517105
