20
 generated by VMD
 C         -52.750702     -146.840500      -45.377518
 N         -52.631107     -147.342545      -44.296715
 H         -54.928604     -146.900269      -48.101006
 H         -52.842270     -146.336395      -46.315750
 C         -54.508179     -145.942444      -48.344425
 C         -53.231289     -145.802948      -49.199326
 C         -55.200127     -144.744858      -47.925472
 C         -53.402740     -144.784454      -50.293114
 C         -55.254162     -143.742493      -49.126385
 C         -53.902763     -143.542007      -49.745922
 H         -53.133862     -146.772446      -49.638672
 H         -52.303947     -145.721558      -48.606525
 H         -56.191624     -145.018509      -47.510178
 H         -54.638977     -144.335159      -47.094627
 H         -53.760429     -145.058548      -51.245266
 H         -52.449120     -144.724411      -50.712498
 H         -55.659939     -142.768478      -48.796272
 H         -55.877911     -144.070358      -49.923744
 H         -53.987099     -142.763840      -50.500114
 H         -53.224758     -143.290375      -48.972000
