20
 generated by VMD
 C         -79.841942     -205.410568      -71.674515
 N         -79.900963     -206.578690      -71.545166
 H         -76.336151     -203.922791      -72.071709
 H         -79.914162     -204.356583      -71.667877
 C         -76.238960     -203.860275      -70.996933
 C         -75.384407     -202.782837      -70.399193
 C         -76.345901     -205.141357      -70.051102
 C         -73.950645     -203.222061      -70.293320
 C         -75.083931     -205.182159      -69.039940
 C         -73.731987     -204.677856      -69.785202
 H         -75.816422     -202.412155      -69.456825
 H         -75.344482     -201.958710      -71.169662
 H         -77.314270     -205.051758      -69.638290
 H         -76.203461     -206.093735      -70.536301
 H         -73.323196     -202.600220      -69.731522
 H         -73.558235     -203.274673      -71.333298
 H         -74.922523     -206.201935      -68.783493
 H         -75.185577     -204.604675      -68.032333
 H         -72.856049     -204.901947      -69.137794
 H         -73.711708     -205.415955      -70.627373
