20
 generated by VMD
 C         -78.771423     -207.933701      -76.734131
 N         -78.679321     -208.012787      -75.596588
 H         -79.165489     -210.166245      -73.502182
 H         -78.663078     -207.738464      -77.833336
 C         -78.691254     -210.218430      -72.470047
 C         -77.375931     -209.508514      -72.300003
 C         -79.152863     -211.300446      -71.599304
 C         -77.219963     -209.204025      -70.805283
 C         -78.696762     -211.133408      -70.051620
 C         -77.257820     -210.543411      -69.873993
 H         -77.204124     -208.710571      -73.018745
 H         -76.603485     -210.238785      -72.626572
 H         -80.269989     -211.410812      -71.471298
 H         -78.769402     -212.205276      -72.062958
 H         -77.957291     -208.487518      -70.398064
 H         -76.224075     -208.701523      -70.807106
 H         -78.764870     -212.155884      -69.719543
 H         -79.418655     -210.501007      -69.448204
 H         -76.833549     -210.499939      -68.872772
 H         -76.570366     -211.114655      -70.427010
