20
 generated by VMD
 C         -19.501993      -57.957588      -17.100876
 N         -19.267292      -58.508244      -18.058353
 H         -22.945656      -59.539097      -16.625811
 H         -20.041729      -57.413944      -16.222525
 C         -22.783892      -60.610657      -16.387716
 C         -24.016191      -61.492741      -16.661524
 C         -21.995499      -61.037033      -15.178836
 C         -23.445982      -62.972427      -16.758022
 C         -21.920465      -62.475704      -14.751081
 C         -22.984272      -63.374790      -15.338028
 H         -24.509201      -61.252735      -17.611193
 H         -24.726595      -61.369110      -15.855635
 H         -20.956158      -60.699997      -15.229777
 H         -22.562050      -60.476349      -14.393212
 H         -22.683636      -63.168793      -17.566174
 H         -24.326658      -63.603855      -17.011206
 H         -21.937368      -62.469913      -13.675582
 H         -20.964880      -62.866413      -15.040167
 H         -22.728968      -64.428131      -15.242991
 H         -23.876276      -63.247295      -14.608706
