20
 generated by VMD
 C         -59.401234     -158.505569      -57.424355
 N         -58.485630     -158.302078      -58.127682
 H         -60.045383     -158.812119      -53.986507
 H         -60.206131     -158.687759      -56.703217
 C         -59.781685     -159.618713      -53.273869
 C         -58.468281     -159.777435      -52.633484
 C         -60.568111     -160.914398      -53.430424
 C         -58.793488     -160.547821      -51.247814
 C         -60.819031     -161.668564      -52.133053
 C         -59.493881     -161.858429      -51.471806
 H         -58.063381     -158.729919      -52.427040
 H         -57.719818     -160.448700      -53.153915
 H         -61.492821     -160.668533      -54.018978
 H         -60.121906     -161.663849      -53.979561
 H         -59.312553     -159.952621      -50.473915
 H         -57.738239     -160.756821      -50.726810
 H         -61.321583     -162.597885      -52.360355
 H         -61.389805     -161.034363      -51.462006
 H         -59.654350     -162.501083      -50.567249
 H         -58.823887     -162.628632      -52.104481
