20
 generated by VMD
 C         -50.880707     -145.092819      -44.673683
 N         -50.951389     -146.180191      -44.417915
 H         -53.022549     -143.817703      -46.131191
 H         -50.888824     -144.044937      -45.012783
 C         -53.491379     -143.687897      -47.124371
 C         -52.540413     -143.696762      -48.389500
 C         -54.791061     -142.786880      -47.146896
 C         -53.421608     -143.600662      -49.716835
 C         -55.444466     -142.758041      -48.489002
 C         -54.487759     -142.478897      -49.653431
 H         -52.004818     -144.579178      -48.444523
 H         -51.905476     -142.798508      -48.357407
 H         -55.445541     -143.178650      -46.346733
 H         -54.602314     -141.810669      -46.991318
 H         -53.946362     -144.609512      -49.879551
 H         -52.704601     -143.581680      -50.525658
 H         -56.250504     -141.976700      -48.452793
 H         -56.145752     -143.663910      -48.644306
 H         -55.116978     -142.409836      -50.556118
 H         -53.917854     -141.624588      -49.433506
