20
 generated by VMD
 C         -47.619534     -136.677719      -45.960400
 N         -47.024052     -136.237839      -46.819603
 H         -50.615513     -135.847641      -45.581039
 H         -48.066936     -137.040436      -45.051407
 C         -51.356228     -136.568832      -45.197918
 C         -51.785370     -137.630615      -46.203213
 C         -51.916912     -136.396683      -43.857834
 C         -52.037663     -138.974258      -45.515182
 C         -52.173985     -137.906219      -43.133713
 C         -52.852791     -138.825500      -44.133926
 H         -51.115234     -137.620483      -47.089890
 H         -52.759529     -137.386917      -46.542664
 H         -51.171455     -135.979584      -43.205029
 H         -52.858799     -135.761200      -43.792774
 H         -50.992188     -139.358139      -45.422832
 H         -52.622768     -139.605942      -46.109188
 H         -52.874664     -137.675873      -42.322815
 H         -51.190067     -138.317673      -42.788956
 H         -52.789143     -139.867279      -43.771946
 H         -53.839352     -138.410202      -44.354694
