20
 generated by VMD
 C         -22.429935      -67.921844      -16.296797
 N         -21.389896      -67.811081      -15.779862
 H         -24.219915      -65.327438      -18.696243
 H         -23.291782      -67.880028      -16.983437
 C         -24.535568      -66.349083      -18.722574
 C         -23.937798      -66.919395      -20.070511
 C         -26.000431      -66.583008      -18.587540
 C         -24.469698      -68.395981      -20.283792
 C         -26.640755      -67.879623      -19.122482
 C         -25.990089      -68.398445      -20.370960
 H         -22.821856      -66.874680      -20.182150
 H         -24.318481      -66.287827      -20.860746
 H         -26.227335      -66.592278      -17.546507
 H         -26.504419      -65.744514      -19.186197
 H         -24.285828      -69.104111      -19.453098
 H         -24.055311      -68.872482      -21.266232
 H         -27.703449      -67.586990      -19.146900
 H         -26.548254      -68.649490      -18.283663
 H         -26.366484      -69.297264      -20.844688
 H         -26.240271      -67.629158      -21.133648
