20
 generated by VMD
 C          -1.842073      -17.585491        2.061503
 N          -1.615359      -17.130535        3.059363
 H          -5.558784      -17.274523        0.993164
 H          -4.916991      -18.460527       -0.036329
 C          -5.826276      -17.936512        0.166654
 C          -6.204219      -17.058434       -1.025622
 C          -6.982423      -18.752718        0.599188
 C          -6.957004      -17.579445       -2.168046
 C          -7.688463      -19.441513       -0.592323
 C          -8.143111      -18.399212       -1.650288
 H          -5.253131      -16.606045       -1.411795
 H          -6.709323      -16.240023       -0.505098
 H          -6.733086      -19.606396        1.333282
 H          -7.760716      -18.137777        1.100716
 H          -6.348505      -18.220631       -2.827115
 H          -7.283190      -16.812040       -2.870138
 H          -8.493799      -20.097263       -0.242311
 H          -7.018639      -20.090296       -1.100601
 H          -8.685633      -18.891151       -2.446560
 H          -8.857264      -17.670298       -1.230596
