20
 generated by VMD
 C         -41.586521     -102.384277      -35.766064
 N         -41.479378     -103.544716      -35.803017
 H         -39.580864     -104.642242      -33.292210
 H         -41.409267     -101.341484      -35.719727
 C         -38.674896     -105.027435      -32.713055
 C         -37.166897     -104.688820      -32.944504
 C         -38.822025     -106.448723      -32.280582
 C         -36.462303     -104.867546      -31.574459
 C         -38.200554     -106.616806      -30.906027
 C         -36.800583     -106.257782      -30.960768
 H         -36.859135     -103.709686      -33.300705
 H         -36.685780     -105.461792      -33.635147
 H         -39.921207     -106.643272      -32.106209
 H         -38.453815     -107.140419      -32.993496
 H         -36.937824     -104.218330      -30.855839
 H         -35.404011     -104.642540      -31.687357
 H         -38.300602     -107.675034      -30.633652
 H         -38.687859     -106.023102      -30.063860
 H         -36.555393     -106.185844      -29.946297
 H         -36.166187     -107.066925      -31.479055
