20
 generated by VMD
 C         -50.784180     -129.639297      -45.927055
 N         -50.929474     -130.503937      -45.226654
 H         -48.205040     -131.203064      -44.343582
 H         -50.536850     -128.767120      -46.527725
 C         -48.064018     -131.288498      -43.178383
 C         -48.333790     -132.568558      -42.404732
 C         -47.983398     -130.073608      -42.334618
 C         -47.413006     -132.676254      -41.179253
 C         -47.015919     -130.297668      -41.164261
 C         -47.405022     -131.442444      -40.294888
 H         -48.262775     -133.449905      -43.109402
 H         -49.287243     -132.594879      -41.965218
 H         -47.616291     -129.261169      -42.904339
 H         -48.994377     -129.861374      -42.042755
 H         -46.414436     -133.010712      -41.555695
 H         -47.636017     -133.480362      -40.449356
 H         -47.084785     -129.360779      -40.567070
 H         -45.974995     -130.245895      -41.489029
 H         -46.562241     -131.314316      -39.633194
 H         -48.341087     -131.175629      -39.857307
