20
 generated by VMD
 C         -69.262871     -181.326202      -61.228256
 N         -69.681076     -180.264786      -61.233955
 H         -66.676491     -179.352814      -59.369186
 H         -68.746002     -182.301117      -61.257763
 C         -66.227806     -178.410339      -59.830200
 C         -65.707344     -178.599930      -61.135464
 C         -65.601059     -177.521973      -58.841335
 C         -65.155594     -177.340958      -61.778000
 C         -64.968933     -176.269440      -59.366520
 C         -64.272964     -176.576736      -60.721710
 H         -66.373344     -178.975143      -61.879761
 H         -64.888290     -179.328812      -61.189873
 H         -66.257759     -177.385300      -58.025326
 H         -64.823402     -178.284958      -58.480629
 H         -66.031075     -176.547836      -62.058773
 H         -64.557411     -177.632309      -62.700626
 H         -64.206841     -175.940857      -58.581436
 H         -65.697334     -175.446030      -59.508995
 H         -63.821823     -175.726074      -61.218685
 H         -63.408924     -177.376755      -60.659439
