20
 generated by VMD
 C         -50.744785     -129.152573      -42.766426
 N         -50.536251     -128.199402      -42.078594
 H         -48.394794     -127.950706      -39.939095
 H         -50.595909     -129.967056      -43.459381
 C         -47.440857     -127.597778      -40.506470
 C         -46.263424     -128.451309      -40.194492
 C         -47.173481     -126.281044      -41.194138
 C         -44.991879     -128.206757      -40.960064
 C         -45.855694     -126.192520      -42.026215
 C         -44.640198     -126.746788      -41.269733
 H         -46.527832     -129.512436      -40.499302
 H         -46.010342     -128.404694      -39.179230
 H         -48.076843     -125.937317      -41.806751
 H         -47.062675     -125.460037      -40.547207
 H         -44.944614     -128.771133      -41.924416
 H         -44.066135     -128.775543      -40.684361
 H         -45.588509     -125.245415      -42.470558
 H         -45.982941     -126.924591      -42.875648
 H         -43.743187     -126.845482      -41.880619
 H         -44.368221     -126.217918      -40.348740
