20
 generated by VMD
 C         -68.685982     -188.421906      -67.345932
 N         -68.242676     -187.441101      -67.836815
 H         -68.207054     -186.969360      -63.722721
 H         -69.099945     -189.347412      -66.979202
 C         -69.147972     -187.460281      -63.504955
 C         -69.250847     -188.404816      -62.433529
 C         -70.418297     -186.599640      -63.620853
 C         -70.491997     -189.309586      -62.415855
 C         -71.647934     -187.523376      -63.871960
 C         -71.813484     -188.491104      -62.628075
 H         -69.288780     -187.910400      -61.481182
 H         -68.314430     -189.002502      -62.458115
 H         -70.571716     -186.037476      -62.689919
 H         -70.209641     -185.802795      -64.344681
 H         -70.440536     -189.882736      -61.515923
 H         -70.394150     -189.990662      -63.325314
 H         -71.512909     -188.192383      -64.721695
 H         -72.546722     -186.954529      -63.977829
 H         -71.942085     -187.913422      -61.696808
 H         -72.600296     -189.213104      -63.021564
