20
 generated by VMD
 C         -69.104950     -194.849869      -65.427704
 N         -68.565742     -194.197937      -64.610107
 H         -71.240807     -194.158691      -68.003822
 H         -69.540474     -195.302109      -66.254822
 C         -72.048187     -193.667969      -67.418274
 C         -71.625114     -192.540375      -66.507805
 C         -73.339844     -194.280045      -67.103607
 C         -72.765518     -192.317291      -65.463676
 C         -74.485802     -193.214401      -67.095123
 C         -74.107925     -192.107376      -66.143776
 H         -71.200089     -191.685715      -67.080215
 H         -70.769157     -192.855179      -66.039307
 H         -73.683830     -195.077713      -67.794434
 H         -73.204124     -194.957169      -66.276085
 H         -72.555107     -191.425400      -64.945076
 H         -72.625290     -193.125381      -64.730515
 H         -75.416771     -193.721222      -66.689217
 H         -74.761909     -192.873703      -68.079491
 H         -74.016556     -191.165421      -66.896149
 H         -74.888573     -191.857758      -65.509377
