20
 generated by VMD
 C          -1.762214      -13.835161        1.083398
 N          -1.810447      -12.824912        1.551499
 H          -3.715776      -17.224937        1.617320
 H          -4.179430      -16.996552       -0.136345
 C          -4.550367      -17.066711        0.905203
 C          -5.154209      -15.687840        1.191208
 C          -5.563201      -18.221937        0.938419
 C          -6.336713      -15.428632        0.292270
 C          -6.715818      -17.837578        0.005534
 C          -7.345478      -16.555304        0.373567
 H          -4.358663      -14.997190        0.929918
 H          -5.351420      -15.570939        2.248374
 H          -5.186038      -19.255480        0.515722
 H          -6.031268      -18.383173        1.982160
 H          -5.974585      -15.377037       -0.799407
 H          -6.869500      -14.471195        0.399041
 H          -7.530398      -18.602737        0.019749
 H          -6.397759      -17.826376       -1.026603
 H          -8.228354      -16.395935       -0.250924
 H          -7.728487      -16.585880        1.396149
