20
 generated by VMD
 C         -30.994352      -78.422173      -25.887720
 N         -31.329706      -77.506325      -25.190439
 H         -29.406807      -77.450523      -23.080648
 H         -30.580782      -79.367355      -26.466576
 C         -28.833649      -78.278549      -22.707335
 C         -27.385628      -78.297745      -22.953629
 C         -29.525492      -79.318771      -22.059275
 C         -26.582439      -79.448135      -22.342466
 C         -28.654572      -80.286041      -21.282034
 C         -27.398441      -80.723915      -22.057741
 H         -26.965836      -77.368614      -22.564938
 H         -27.265600      -78.296318      -24.047312
 H         -30.275938      -79.076912      -21.311666
 H         -30.104534      -79.877686      -22.760122
 H         -25.956902      -78.981003      -21.574169
 H         -25.891125      -79.807228      -23.076532
 H         -29.156479      -81.251953      -21.153755
 H         -28.363155      -79.888268      -20.329620
 H         -26.801434      -81.435219      -21.474085
 H         -27.650925      -81.187302      -22.962019
