20
 generated by VMD
 C         -79.631035     -206.861115      -75.173927
 N         -79.902878     -207.576111      -74.282394
 H         -76.936920     -207.544556      -73.091736
 H         -79.248528     -206.410446      -76.090599
 C         -76.803299     -208.137451      -72.267311
 C         -75.619934     -207.877762      -71.372444
 C         -77.948814     -208.976685      -71.740303
 C         -76.033119     -207.511658      -69.974213
 C         -78.112206     -208.942841      -70.215263
 C         -76.781586     -208.756317      -69.442863
 H         -74.903419     -207.245255      -71.849022
 H         -75.051270     -208.832001      -71.392937
 H         -78.883286     -208.669739      -72.153458
 H         -77.786865     -210.054245      -72.063454
 H         -76.524406     -206.535278      -69.948997
 H         -75.149139     -207.224457      -69.405708
 H         -78.440605     -209.936325      -69.971878
 H         -78.842804     -208.217499      -69.759262
 H         -77.018280     -208.443054      -68.408089
 H         -76.394814     -209.761734      -69.276955
