20
 generated by VMD
 C         -16.129366      -47.650410       -6.975513
 N         -15.977093      -46.542507       -6.840415
 H         -16.694040      -48.080032      -10.095031
 H         -15.378684      -47.825939      -11.132396
 C         -16.412333      -47.474838      -10.950050
 C         -16.442360      -46.030037      -10.576622
 C         -17.325235      -47.739117      -12.182372
 C         -15.957766      -45.115612      -11.739681
 C         -16.988901      -46.708126      -13.322249
 C         -16.894049      -45.181988      -12.952980
 H         -15.734942      -45.929211       -9.747265
 H         -17.502880      -45.739487      -10.279347
 H         -17.149851      -48.777157      -12.556954
 H         -18.415020      -47.619617      -11.879127
 H         -14.939193      -45.391033      -12.102440
 H         -15.967813      -44.069855      -11.361638
 H         -17.604301      -46.929573      -14.156798
 H         -15.987846      -46.839764      -13.661152
 H         -16.382782      -44.723919      -13.746581
 H         -17.887482      -44.799774      -12.784706
