20
 generated by VMD
 C         -22.974625      -53.548401      -13.839460
 N         -23.656435      -52.841450      -14.485126
 H         -20.812706      -55.258759      -14.221375
 H         -22.340675      -54.036129      -13.335092
 C         -19.716150      -54.992523      -14.064975
 C         -19.111868      -53.599823      -13.806387
 C         -18.785347      -56.112732      -14.326229
 C         -17.930618      -53.795135      -12.818939
 C         -17.463568      -56.103622      -13.478883
 C         -16.848242      -54.737041      -13.324857
 H         -19.915281      -52.967400      -13.337606
 H         -18.647943      -53.213371      -14.773990
 H         -19.209953      -57.101353      -14.149241
 H         -18.528427      -56.087502      -15.409889
 H         -18.304832      -54.275627      -11.880798
 H         -17.618891      -52.793343      -12.557042
 H         -16.794220      -56.775826      -13.985677
 H         -17.641981      -56.575947      -12.463758
 H         -15.994004      -54.745502      -12.666640
 H         -16.549833      -54.445221      -14.287336
