20
 generated by VMD
 C          -1.390995      -10.538503        1.339638
 N          -0.882190      -11.544349        1.378766
 H          -3.768645      -13.358810        0.044172
 H          -5.285610      -12.716047        0.842203
 C          -4.592559      -13.541517        0.751986
 C          -3.854589      -13.871403        2.077398
 C          -5.360704      -14.783011        0.247586
 C          -4.771890      -14.503735        3.099012
 C          -6.311189      -15.335727        1.318670
 C          -5.540198      -15.715599        2.598290
 H          -3.448158      -13.013764        2.576013
 H          -2.997559      -14.595237        1.987237
 H          -5.917660      -14.397231       -0.574391
 H          -4.636825      -15.504809       -0.033652
 H          -5.566117      -13.692805        3.270597
 H          -4.305078      -14.749971        4.065597
 H          -6.941842      -16.155344        0.935677
 H          -6.965340      -14.460179        1.597096
 H          -6.221780      -16.090548        3.362459
 H          -4.840611      -16.481571        2.338548
