20
 generated by VMD
 C         -22.104317      -53.025253      -12.551625
 N         -23.008059      -52.479538      -13.032061
 H         -20.230902      -53.970047      -14.638948
 H         -21.311548      -53.467632      -11.996276
 C         -19.503908      -53.821331      -13.852478
 C         -18.919392      -52.466923      -13.626209
 C         -18.492577      -54.897675      -13.371303
 C         -17.475836      -52.420509      -14.144604
 C         -17.139605      -54.496304      -12.751401
 C         -16.525839      -53.312805      -13.386625
 H         -18.895638      -52.298813      -12.562715
 H         -19.514090      -51.714798      -14.217186
 H         -19.032116      -55.655388      -12.738936
 H         -18.306036      -55.456463      -14.272359
 H         -17.103397      -51.380833      -14.143027
 H         -17.466442      -52.730904      -15.215579
 H         -16.412857      -55.355019      -12.799761
 H         -17.266354      -54.316563      -11.671793
 H         -15.964167      -52.804432      -12.618660
 H         -15.850390      -53.624203      -14.148388
