20
 generated by VMD
 C         -21.581335      -52.440308      -11.342981
 N         -21.472904      -52.944141      -10.310829
 H         -19.819180      -50.466618      -13.776803
 H         -21.495836      -51.793709      -12.474669
 C         -18.837193      -51.017326      -13.571368
 C         -18.239708      -51.982380      -14.515536
 C         -18.215893      -50.681786      -12.216423
 C         -16.732353      -51.962883      -14.422454
 C         -16.737610      -50.699760      -12.168623
 C         -16.161697      -51.853977      -12.965909
 H         -18.512985      -51.704361      -15.531438
 H         -18.671593      -53.018593      -14.398285
 H         -18.688721      -49.710037      -11.949329
 H         -18.540670      -51.462265      -11.514275
 H         -16.335726      -51.108780      -14.968909
 H         -16.496239      -52.891937      -14.932722
 H         -16.321333      -50.652905      -11.231120
 H         -16.455624      -49.811054      -12.785968
 H         -15.097927      -51.702393      -12.985249
 H         -16.375778      -52.785816      -12.478636
