20
 generated by VMD
 C         -55.556263     -148.901932      -45.379379
 N         -54.889595     -149.297623      -44.527294
 H         -54.714123     -148.144653      -48.614426
 H         -56.156021     -148.435989      -46.103275
 C         -54.308792     -147.227158      -49.017483
 C         -53.140083     -147.127289      -49.986965
 C         -54.962132     -145.952240      -48.554050
 C         -53.345814     -146.075790      -51.093159
 C         -55.183868     -145.023651      -49.675240
 C         -53.909966     -144.817535      -50.449284
 H         -53.304268     -148.135330      -50.428635
 H         -52.184151     -146.935272      -49.500771
 H         -55.907524     -146.059875      -48.056236
 H         -54.340595     -145.504547      -47.829659
 H         -54.102924     -146.412689      -51.770794
 H         -52.483959     -145.825699      -51.745590
 H         -55.426743     -144.100250      -49.207664
 H         -56.017059     -145.353775      -50.278229
 H         -54.119057     -144.315460      -51.371147
 H         -53.180584     -144.258926      -49.904099
