20
 generated by VMD
 C          -1.917663      -15.940440        1.920783
 N          -1.767856      -15.290740        2.812809
 H          -4.165422      -16.037933        0.204033
 H          -4.514654      -17.101147       -1.149395
 C          -4.910643      -16.700792       -0.256864
 C          -6.093643      -15.807217       -0.565812
 C          -5.341932      -17.760845        0.740156
 C          -7.381817      -16.493170       -0.932071
 C          -6.572200      -18.572886        0.236461
 C          -7.705616      -17.630375        0.044264
 H          -5.785050      -15.114550       -1.349390
 H          -6.271206      -15.111968        0.278091
 H          -4.484988      -18.481256        0.988370
 H          -5.676129      -17.301893        1.709912
 H          -7.352764      -16.957384       -1.913803
 H          -8.215874      -15.747003       -1.039221
 H          -6.778250      -19.349731        0.956254
 H          -6.249189      -19.083187       -0.712558
 H          -8.623712      -18.116806       -0.313101
 H          -7.955292      -17.163214        1.003028
