20
 generated by VMD
 C         -20.369211      -61.483784      -16.785103
 N         -19.435860      -61.080826      -17.312063
 H         -21.642614      -64.239532      -16.818417
 H         -21.318207      -62.025238      -16.447702
 C         -22.584089      -64.732689      -17.064924
 C         -23.134300      -64.251114      -18.365164
 C         -23.579874      -64.924156      -15.991312
 C         -24.625998      -64.578674      -18.782978
 C         -24.983829      -65.434418      -16.543680
 C         -25.569235      -64.533180      -17.680912
 H         -22.490305      -64.685822      -19.186489
 H         -23.060007      -63.080837      -18.325079
 H         -23.304014      -65.635452      -15.183915
 H         -23.867252      -63.936893      -15.440579
 H         -24.684952      -65.655617      -19.135176
 H         -25.038696      -63.955982      -19.551727
 H         -25.725750      -65.378738      -15.726592
 H         -25.006004      -66.518135      -16.691492
 H         -26.608767      -64.686203      -17.904894
 H         -25.545656      -63.494236      -17.305964
