20
 generated by VMD
 C         -67.945221     -185.159790      -67.989929
 N         -67.587616     -185.685471      -67.014168
 H         -69.645317     -185.432602      -64.537308
 H         -68.252594     -184.828018      -68.956886
 C         -69.799561     -185.920807      -63.520741
 C         -70.896896     -185.476303      -62.609325
 C         -69.089104     -187.139664      -63.136761
 C         -70.331268     -185.220169      -61.261086
 C         -68.654694     -187.170364      -61.642029
 C         -69.629578     -186.420410      -60.664688
 H         -71.667908     -186.283020      -62.650486
 H         -71.436600     -184.619217      -63.078094
 H         -69.649658     -188.054520      -63.360744
 H         -68.267761     -187.152695      -63.911827
 H         -71.248764     -184.961456      -60.682076
 H         -69.679047     -184.323883      -61.291733
 H         -67.605034     -186.753769      -61.545753
 H         -68.481956     -188.184525      -61.259415
 H         -70.440605     -187.230057      -60.340126
 H         -69.085503     -186.342987      -59.699921
