20
 generated by VMD
 C         -75.590881     -202.210663      -66.222801
 N         -76.462036     -202.718155      -65.657394
 H         -75.833496     -200.224701      -68.994362
 H         -74.963814     -201.735825      -67.023048
 C         -74.962250     -199.605896      -69.113419
 C         -74.855347     -198.147278      -68.573288
 C         -73.889351     -199.914139      -70.004700
 C         -73.356659     -197.735306      -68.343536
 C         -73.404526     -198.629974      -70.674309
 C         -72.619644     -197.784775      -69.644814
 H         -75.320824     -198.019394      -67.622833
 H         -75.291512     -197.565399      -69.307999
 H         -73.026482     -200.519562      -69.686630
 H         -74.292839     -200.566040      -70.741249
 H         -72.840538     -198.431229      -67.669540
 H         -73.327911     -196.688629      -68.036835
 H         -74.171318     -198.064026      -71.165833
 H         -72.831779     -199.041885      -71.452538
 H         -71.502670     -198.200119      -69.500610
 H         -72.553078     -196.820999      -70.030243
