20
 generated by VMD
 C         -51.307850     -145.527695      -44.062641
 N         -51.278900     -146.434296      -44.828949
 H         -53.523594     -144.756638      -46.533813
 H         -51.381107     -144.661484      -43.457466
 C         -53.730682     -144.335663      -47.490662
 C         -52.723770     -144.105682      -48.599655
 C         -54.759888     -143.244949      -47.293007
 C         -53.485966     -143.860703      -49.902000
 C         -55.451622     -142.893250      -48.697498
 C         -54.383961     -142.655823      -49.788475
 H         -52.130917     -145.108047      -48.812122
 H         -51.913795     -143.314407      -48.427544
 H         -55.572269     -143.518784      -46.591705
 H         -54.120872     -142.415665      -47.033039
 H         -53.970207     -144.756165      -50.172966
 H         -52.771416     -143.628540      -50.610359
 H         -56.079895     -141.971649      -48.664612
 H         -55.942154     -143.849091      -48.925140
 H         -54.896980     -142.631882      -50.776066
 H         -53.954876     -141.539490      -49.645462
