20
 generated by VMD
 C         -68.684570     -185.397400      -66.897018
 N         -67.674004     -184.897812      -66.659401
 H         -69.234200     -188.071808      -64.910378
 H         -69.557373     -185.977829      -67.084282
 C         -69.482185     -187.615921      -63.983376
 C         -69.668701     -186.107605      -63.815659
 C         -70.104584     -188.443665      -62.836304
 C         -69.573174     -185.605865      -62.328918
 C         -69.817429     -187.841919      -61.469944
 C         -70.443619     -186.462662      -61.445576
 H         -70.715500     -185.798615      -64.123390
 H         -68.927956     -185.440033      -64.383110
 H         -71.210304     -188.522324      -63.054993
 H         -69.620621     -189.425949      -62.800808
 H         -69.858559     -184.543076      -62.232483
 H         -68.575073     -185.644104      -61.914894
 H         -68.722252     -187.728088      -61.174988
 H         -70.174690     -188.588272      -60.674664
 H         -71.540253     -186.507126      -61.477058
 H         -70.429138     -186.071518      -60.451984
