20
 generated by VMD
 C         -20.143486      -61.824841      -17.704933
 N         -19.663643      -61.576183      -16.693110
 H         -21.929947      -65.027695      -16.485725
 H         -20.740875      -62.099388      -18.478020
 C         -22.881414      -65.122414      -17.012293
 C         -23.135281      -64.333145      -18.258476
 C         -24.026730      -65.190567      -16.064369
 C         -24.475817      -64.758263      -18.976358
 C         -25.327188      -65.783821      -16.758757
 C         -25.600494      -64.903931      -17.971020
 H         -22.266121      -64.320877      -18.955667
 H         -23.115704      -63.251518      -17.786469
 H         -23.827898      -65.856239      -15.290175
 H         -24.253597      -64.285751      -15.450797
 H         -24.468933      -65.704773      -19.587044
 H         -24.782999      -63.875774      -19.576952
 H         -26.205189      -65.754845      -16.076868
 H         -25.077089      -66.801735      -17.111467
 H         -26.580374      -65.172546      -18.342548
 H         -25.559792      -63.863792      -17.454681
