20
 generated by VMD
 C          -2.738339       -9.019535        0.141594
 N          -1.628704       -9.297094        0.060052
 H          -2.128918      -11.859927        2.879984
 H          -2.977406      -12.507413        4.150167
 C          -3.017727      -12.456090        3.073230
 C          -2.674484      -13.944354        2.667612
 C          -4.356167      -11.995433        2.487273
 C          -3.845248      -14.869120        3.072003
 C          -5.473883      -12.977535        2.747407
 C          -5.153004      -14.420116        2.377532
 H          -1.770767      -14.291382        3.186435
 H          -2.502016      -14.045032        1.601556
 H          -4.629404      -11.083476        2.995728
 H          -4.291154      -11.679566        1.446749
 H          -3.989191      -14.855399        4.153844
 H          -3.598165      -15.877018        2.810964
 H          -6.434427      -12.605455        2.333747
 H          -5.608837      -12.874293        3.847986
 H          -6.065892      -15.029189        2.680037
 H          -5.044531      -14.542401        1.278288
