20
 generated by VMD
 C         -12.866202      -30.010159       -7.556443
 N         -13.666909      -29.428102       -8.078703
 H         -11.326982      -30.188744       -4.790587
 H         -10.065485      -30.421007       -3.643163
 C         -10.742415      -30.978285       -4.375904
 C          -9.754241      -31.509315       -5.406996
 C         -11.591969      -32.108265       -3.807375
 C          -8.795551      -32.575897       -4.917216
 C         -10.600918      -33.172718       -3.246170
 C          -9.597924      -33.648399       -4.228515
 H          -9.086432      -30.669149       -5.834465
 H         -10.352194      -31.894676       -6.210585
 H         -12.356642      -31.861391       -3.058365
 H         -12.163019      -32.561760       -4.649004
 H          -8.123743      -32.099537       -4.222427
 H          -8.098808      -32.891163       -5.704243
 H         -11.199367      -33.981541       -2.862713
 H         -10.075560      -32.718410       -2.365399
 H          -8.926826      -34.440353       -3.890649
 H         -10.123305      -34.210766       -5.038959
