20
 generated by VMD
 C         -10.801661      -36.468193       -7.807721
 N          -9.828830      -36.975933       -7.570208
 H         -13.062266      -38.749794       -8.194973
 H         -14.291815      -38.713123       -6.907346
 C         -14.007606      -39.290600       -7.834153
 C         -13.635816      -40.747467       -7.646809
 C         -15.021509      -39.059879       -8.903376
 C         -14.905099      -41.630695       -7.612875
 C         -16.279263      -39.885960       -8.647278
 C         -15.901721      -41.326908       -8.701756
 H         -13.083660      -40.993435       -6.747086
 H         -13.051856      -41.064518       -8.498794
 H         -15.230277      -38.008465       -8.961020
 H         -14.620301      -39.344654       -9.849922
 H         -15.426810      -41.532494       -6.683921
 H         -14.552774      -42.673443       -7.606581
 H         -16.993721      -39.600601       -9.393306
 H         -16.632092      -39.571796       -7.638482
 H         -16.748444      -41.973480       -8.475009
 H         -15.503440      -41.586502       -9.662575
