20
 generated by VMD
 C         -68.183884     -195.447495      -64.699791
 N         -68.729584     -196.488358      -64.735527
 H         -71.210526     -194.284668      -67.036392
 H         -67.852882     -194.389465      -64.577728
 C         -72.149963     -193.781921      -67.291916
 C         -72.171974     -192.362671      -66.807625
 C         -73.438805     -194.545334      -67.643463
 C         -73.411484     -192.034973      -66.075195
 C         -74.681824     -193.922516      -67.046486
 C         -74.642319     -192.445969      -66.881401
 H         -72.031113     -191.542740      -67.667877
 H         -71.261887     -192.018768      -66.228027
 H         -73.446442     -194.809769      -68.812653
 H         -73.448822     -195.641891      -67.170509
 H         -73.355675     -190.990906      -65.827057
 H         -73.568878     -192.460892      -65.110504
 H         -74.726784     -194.378082      -66.049515
 H         -75.588272     -194.200241      -67.545708
 H         -74.529495     -191.878235      -67.908066
 H         -75.520874     -192.071304      -66.530693
