20
 generated by VMD
 C         -63.359707     -174.833633      -55.310623
 N         -62.656174     -174.349411      -56.110107
 H         -65.159698     -173.445114      -57.856594
 H         -63.883331     -175.321579      -54.508713
 C         -64.757004     -172.496979      -58.286648
 C         -64.770790     -171.159378      -57.548237
 C         -64.466988     -172.496475      -59.773151
 C         -64.028854     -169.974365      -58.256924
 C         -63.622311     -171.290588      -60.207134
 C         -64.075493     -170.002701      -59.700317
 H         -64.196877     -171.319794      -56.643059
 H         -65.823425     -170.745941      -57.274235
 H         -64.058037     -173.418030      -60.026283
 H         -65.411331     -172.491684      -60.311752
 H         -63.006714     -170.130463      -57.969246
 H         -64.369896     -169.022324      -57.835552
 H         -63.428535     -171.285812      -61.299980
 H         -62.569180     -171.534897      -59.841553
 H         -63.291275     -169.373291      -59.986835
 H         -65.003342     -169.663116      -60.197304
