20
 generated by VMD
 C         -21.073429      -52.478764      -11.414368
 N         -21.452122      -52.863384      -10.420066
 H         -19.573439      -50.068665      -13.657977
 H         -20.987984      -52.148876      -12.421462
 C         -18.838112      -50.754036      -13.338725
 C         -18.480518      -51.998184      -14.063438
 C         -18.025713      -50.340492      -12.096151
 C         -16.955345      -51.979507      -14.347583
 C         -16.508575      -50.288219      -12.320639
 C         -16.163839      -51.554356      -13.058957
 H         -19.017054      -51.991425      -14.989582
 H         -18.794186      -52.878429      -13.454160
 H         -18.506983      -49.386913      -11.793968
 H         -18.166113      -50.991287      -11.186414
 H         -16.567656      -51.461662      -15.242919
 H         -16.733028      -53.011742      -14.648593
 H         -15.947309      -50.203491      -11.462701
 H         -16.243156      -49.383812      -12.936643
 H         -15.148537      -51.418419      -13.311274
 H         -16.203945      -52.408211      -12.428182
