20
 generated by VMD
 C         -11.796830      -31.791538       -9.016352
 N         -12.479308      -32.371422       -9.641528
 H         -10.939404      -34.105957       -6.717857
 H         -11.963980      -34.032520       -5.188068
 C         -11.596186      -34.692265       -5.984719
 C         -10.707412      -35.745144       -5.268229
 C         -12.858809      -35.202576       -6.662481
 C         -11.545588      -36.679848       -4.411167
 C         -13.602597      -36.084869       -5.631852
 C         -12.739749      -37.269917       -5.120317
 H          -9.925887      -35.164413       -4.778267
 H         -10.178100      -36.342464       -6.029067
 H         -13.481356      -34.383053       -7.052335
 H         -12.606608      -35.932693       -7.447185
 H         -11.917510      -36.102028       -3.593856
 H         -10.937401      -37.490768       -4.012453
 H         -14.562898      -36.463379       -6.115669
 H         -13.875312      -35.553024       -4.767044
 H         -13.317495      -37.889332       -4.416039
 H         -12.427048      -37.963833       -5.944126
