20
 generated by VMD
 C          -1.912167      -13.123468        0.510171
 N          -1.571099      -13.468819        1.522158
 H          -3.592909      -16.270998        1.829453
 H          -3.867076      -15.936952        0.093567
 C          -4.361703      -16.237494        1.031121
 C          -5.378238      -15.178105        1.536355
 C          -4.981465      -17.657335        0.977452
 C          -6.660989      -15.141713        0.791806
 C          -6.280696      -17.650211        0.102642
 C          -7.255393      -16.557943        0.607844
 H          -4.881831      -14.221962        1.438160
 H          -5.529518      -15.387757        2.615042
 H          -4.300152      -18.245337        0.520983
 H          -5.167982      -18.048491        1.920998
 H          -6.554608      -14.773726       -0.207745
 H          -7.356519      -14.571408        1.365520
 H          -6.749161      -18.652246        0.106898
 H          -5.960944      -17.394943       -0.870542
 H          -8.196986      -16.497002        0.038745
 H          -7.505766      -16.899870        1.623937
