20
 generated by VMD
 C         -11.689018      -41.945614       -6.721781
 N         -11.229660      -40.960438       -6.901532
 H         -14.393644      -40.777378       -8.366077
 H         -15.539542      -40.312668       -9.753978
 C         -15.116322      -41.155777       -9.185391
 C         -16.311424      -41.778431       -8.482676
 C         -14.502617      -42.248703      -10.015217
 C         -17.281395      -42.412331       -9.492510
 C         -15.468363      -42.698261      -11.104041
 C         -16.598135      -43.406124      -10.386092
 H         -16.829891      -41.028194       -7.906491
 H         -15.974677      -42.578758       -7.794163
 H         -13.615356      -41.875381      -10.493413
 H         -14.102493      -42.977432       -9.354311
 H         -17.841612      -41.645142      -10.082368
 H         -18.163490      -42.886848       -9.058371
 H         -14.966639      -43.438133      -11.680206
 H         -15.883999      -41.879021      -11.778466
 H         -17.292315      -43.764877      -11.146243
 H         -16.182789      -44.248360       -9.778262
