20
 generated by VMD
 C         -19.239365      -61.453983      -16.104942
 N         -19.993502      -60.838375      -16.732698
 H         -21.929056      -63.224957      -18.223106
 H         -18.443089      -61.870678      -15.618953
 C         -22.871189      -63.489796      -17.809128
 C         -24.031975      -63.484272      -18.748478
 C         -23.075916      -63.452721      -16.305025
 C         -24.759546      -64.790581      -18.441385
 C         -23.851477      -64.688187      -16.003008
 C         -25.129791      -64.817894      -16.920828
 H         -23.633150      -63.455677      -19.826920
 H         -24.618925      -62.568344      -18.617241
 H         -22.100405      -63.421410      -15.688278
 H         -23.609402      -62.614883      -15.924280
 H         -24.026606      -65.560097      -18.698612
 H         -25.682096      -64.846054      -19.081869
 H         -24.182240      -64.764542      -14.923864
 H         -23.298355      -65.618141      -16.165920
 H         -25.457804      -65.831604      -16.573841
 H         -25.755243      -64.008598      -16.650002
