20
 generated by VMD
 C         -30.558523      -75.332825      -22.736732
 N         -31.339828      -75.223228      -21.879265
 H         -28.788033      -77.960541      -21.194054
 H         -29.672403      -75.809868      -23.349270
 C         -27.894661      -77.375473      -21.481899
 C         -26.735579      -77.895668      -22.326130
 C         -27.609749      -76.093262      -20.800474
 C         -25.817179      -76.846169      -22.982426
 C         -26.705059      -75.059227      -21.416063
 C         -25.474911      -75.718811      -22.052292
 H         -27.252401      -78.447975      -23.162771
 H         -26.079285      -78.450424      -21.644421
 H         -28.539736      -75.558479      -20.547626
 H         -27.260105      -76.285919      -19.841835
 H         -26.201771      -76.370560      -23.934296
 H         -24.919600      -77.406487      -23.346987
 H         -26.364935      -74.221497      -20.742395
 H         -27.239614      -74.585815      -22.305464
 H         -24.981716      -74.985214      -22.674850
 H         -24.817377      -76.187241      -21.256762
