20
 generated by VMD
 C         -11.897008      -25.661123       -0.821962
 N         -12.365863      -25.459249        0.157441
 H          -8.191016      -26.637655       -1.618159
 H          -9.383097      -26.012632       -2.684493
 C          -8.257984      -26.037575       -2.501244
 C          -7.437398      -26.845606       -3.581819
 C          -7.625399      -24.657253       -2.208323
 C          -7.131577      -25.956896       -4.822551
 C          -7.410312      -23.750937       -3.567657
 C          -6.501159      -24.621256       -4.507534
 H          -8.078842      -27.663610       -3.857023
 H          -6.450392      -27.172836       -3.096735
 H          -8.337275      -24.040380       -1.587724
 H          -6.677827      -24.743589       -1.700973
 H          -8.086215      -25.807234       -5.387763
 H          -6.336187      -26.399511       -5.453781
 H          -6.899924      -22.815035       -3.294150
 H          -8.365175      -23.438488       -4.045086
 H          -6.352894      -24.041470       -5.432230
 H          -5.529474      -24.842066       -4.095970
