20
 generated by VMD
 C         -12.908821      -28.709982       -5.916934
 N         -12.822793      -27.727745       -5.377759
 H         -11.527737      -31.178089       -3.448322
 H         -11.203730      -29.584587       -4.426816
 C         -10.786145      -30.502150       -3.932344
 C          -9.831506      -31.244595       -4.865809
 C          -9.970564      -29.976149       -2.743138
 C          -8.624627      -30.359655       -5.322223
 C          -8.833088      -29.056162       -3.205297
 C          -7.901192      -29.904303       -4.100519
 H         -10.411127      -31.580709       -5.798796
 H          -9.391886      -32.121216       -4.376946
 H         -10.616158      -29.515644       -1.993399
 H          -9.532172      -30.872360       -2.252913
 H          -8.929186      -29.492626       -5.951680
 H          -7.952088      -31.034458       -5.903266
 H          -8.261867      -28.722696       -2.289025
 H          -9.217058      -28.236364       -3.763901
 H          -7.103477      -29.304976       -4.479928
 H          -7.350450      -30.634846       -3.508001
