20
 generated by VMD
 C         -33.693218      -96.283852      -25.262819
 N         -32.900623      -97.134987      -25.064756
 H         -34.858875      -93.622955      -27.378269
 H         -34.364952      -95.374222      -25.277496
 C         -34.859440      -93.404266      -28.452427
 C         -36.018513      -93.972633      -29.199959
 C         -33.569664      -93.325394      -29.181238
 C         -36.199425      -93.197517      -30.410217
 C         -33.748802      -92.635956      -30.546333
 C         -34.944229      -92.990570      -31.382904
 H         -36.927479      -94.016357      -28.582590
 H         -35.711308      -95.030182      -29.467588
 H         -32.860752      -92.752373      -28.568579
 H         -33.182301      -94.326141      -29.441240
 H         -36.249340      -92.184349      -30.093367
 H         -37.121445      -93.408669      -31.044861
 H         -32.822842      -92.640244      -31.127394
 H         -33.808548      -91.493378      -30.354488
 H         -35.077564      -92.205231      -32.090645
 H         -34.688488      -93.827698      -31.927481
