20
 generated by VMD
 C         -19.704004      -60.236073      -17.825325
 N         -19.674826      -59.074150      -17.998964
 H         -22.819935      -59.828461      -16.032337
 H         -19.983843      -61.279861      -17.366318
 C         -22.879255      -60.889530      -15.964235
 C         -23.327322      -61.548599      -17.279116
 C         -23.362598      -61.638039      -14.812637
 C         -22.756044      -62.943745      -17.219170
 C         -22.720606      -63.006710      -14.788033
 C         -23.287466      -63.738503      -16.007635
 H         -22.780058      -61.072651      -18.153986
 H         -24.434311      -61.427902      -17.457705
 H         -23.221308      -60.985115      -13.865886
 H         -24.474068      -61.742359      -14.666265
 H         -21.698891      -62.815636      -17.135937
 H         -23.087149      -63.460308      -18.121252
 H         -22.822184      -63.558437      -13.797560
 H         -21.598742      -62.885654      -14.813710
 H         -22.779764      -64.750565      -16.013660
 H         -24.402054      -63.884155      -16.023281
