20
 generated by VMD
 C         -79.458939     -206.803802      -74.612030
 N         -80.212601     -207.628647      -74.396446
 H         -76.913712     -207.526886      -73.221748
 H         -78.864143     -205.951126      -74.635712
 C         -76.775536     -207.895721      -72.284233
 C         -75.667870     -207.257812      -71.495308
 C         -77.740181     -208.780243      -71.599373
 C         -75.648399     -207.500504      -69.901695
 C         -78.003456     -208.504089      -70.139839
 C         -76.691757     -208.500809      -69.409447
 H         -75.480934     -206.159058      -71.702934
 H         -74.776718     -207.839676      -71.828194
 H         -78.660728     -208.877960      -72.163757
 H         -77.360161     -209.814194      -71.574730
 H         -75.895226     -206.648590      -69.335396
 H         -74.736931     -207.855835      -69.436806
 H         -78.671738     -209.307953      -69.846161
 H         -78.579544     -207.577942      -70.117126
 H         -76.726929     -208.407639      -68.248444
 H         -76.250443     -209.521576      -69.388481
