20
 generated by VMD
 C         -31.780392      -75.912918      -24.077299
 N         -31.149035      -76.320290      -24.944618
 H         -29.638985      -77.970604      -22.301451
 H         -32.293621      -75.502571      -23.082140
 C         -28.608009      -78.022400      -22.135336
 C         -27.618629      -78.297752      -23.222166
 C         -28.118073      -78.272743      -20.778923
 C         -26.316481      -77.652931      -22.857618
 C         -26.807398      -77.638092      -20.453665
 C         -25.805733      -78.130936      -21.470957
 H         -27.959497      -77.717796      -24.177864
 H         -27.424784      -79.456734      -23.359657
 H         -28.833143      -77.863258      -20.163799
 H         -28.047850      -79.383118      -20.731176
 H         -26.218054      -76.580315      -22.956539
 H         -25.648113      -78.081718      -23.560843
 H         -26.582642      -78.035774      -19.395859
 H         -26.749638      -76.558220      -20.434437
 H         -24.772978      -77.834953      -21.291513
 H         -25.688131      -79.285149      -21.440432
