20
 generated by VMD
 C         -47.624630     -136.680405      -45.955105
 N         -47.079086     -136.337692      -46.891262
 H         -50.897057     -135.723160      -45.626194
 H         -48.447826     -137.009659      -45.304935
 C         -51.190491     -136.667786      -45.157066
 C         -51.668098     -137.696838      -46.108772
 C         -51.865456     -136.541351      -43.851387
 C         -52.020298     -139.007706      -45.478683
 C         -52.359894     -137.984848      -43.272213
 C         -53.037605     -138.837921      -44.304493
 H         -51.015976     -137.864471      -46.917141
 H         -52.599247     -137.307968      -46.605003
 H         -51.289562     -135.980698      -43.110504
 H         -52.726372     -135.795624      -44.005833
 H         -51.125935     -139.584503      -45.089336
 H         -52.510975     -139.645081      -46.209465
 H         -53.088753     -137.814697      -42.497658
 H         -51.459171     -138.481003      -42.710083
 H         -53.392349     -139.862213      -43.770031
 H         -54.011902     -138.402557      -44.412987
