20
 generated by VMD
 C         -50.423225     -129.330322      -43.600018
 N         -50.882645     -130.004761      -44.489162
 H         -49.070992     -127.981537      -41.075066
 H         -49.807373     -128.641571      -42.961617
 C         -48.070011     -128.287857      -41.110123
 C         -47.730824     -129.696228      -41.028900
 C         -47.075832     -127.279518      -40.918739
 C         -46.458454     -130.124756      -41.660828
 C         -45.632797     -127.658630      -41.321606
 C         -45.369701     -129.136063      -41.088921
 H         -48.490471     -130.371063      -41.560989
 H         -47.667576     -129.963348      -39.997894
 H         -47.265133     -126.472916      -41.538368
 H         -47.057442     -126.894638      -39.821312
 H         -46.588604     -129.912247      -42.736462
 H         -46.137249     -131.128784      -41.368561
 H         -44.923351     -127.118576      -40.700390
 H         -45.503559     -127.280655      -42.291794
 H         -44.363060     -129.368759      -41.430283
 H         -45.172985     -129.411240      -39.997643
