20
 generated by VMD
 C         -67.958145     -178.386826      -57.982983
 N         -66.956085     -178.503281      -57.418549
 H         -65.314354     -176.606827      -59.150909
 H         -68.860184     -178.427856      -58.522854
 C         -64.941963     -175.667618      -59.494957
 C         -65.940247     -174.600388      -59.938831
 C         -63.496384     -175.488663      -59.973343
 C         -65.375145     -173.245316      -59.809177
 C         -63.034706     -173.969177      -59.905621
 C         -64.043144     -173.046921      -60.551083
 H         -66.871788     -174.721115      -59.371017
 H         -66.213852     -174.680832      -61.010395
 H         -62.834602     -176.240463      -59.425896
 H         -63.527519     -175.810165      -61.045891
 H         -65.158752     -173.077927      -58.749069
 H         -66.107620     -172.564545      -60.262928
 H         -62.051861     -173.673584      -60.337299
 H         -63.022495     -173.947479      -58.819542
 H         -63.847637     -172.008041      -60.745213
 H         -64.357727     -173.401093      -61.592377
