20
 generated by VMD
 C         -59.437561     -151.987381      -49.306721
 N         -58.716988     -152.293808      -50.226963
 H         -56.640167     -150.792282      -48.591473
 H         -59.959660     -151.678024      -48.374310
 C         -55.729828     -150.455017      -49.180325
 C         -54.700199     -151.528656      -49.675491
 C         -55.443935     -148.962128      -49.223415
 C         -54.303207     -150.955887      -51.030182
 C         -54.809536     -148.531494      -50.574242
 C         -53.698948     -149.552017      -51.026493
 H         -55.258533     -152.492584      -49.878284
 H         -53.884102     -151.874374      -49.048397
 H         -56.355061     -148.436478      -48.955528
 H         -54.635071     -148.860550      -48.471489
 H         -55.173252     -151.018646      -51.726707
 H         -53.628548     -151.688934      -51.508461
 H         -54.425549     -147.535202      -50.562244
 H         -55.650337     -148.685623      -51.365898
 H         -53.246456     -149.330612      -51.976688
 H         -52.946938     -149.567261      -50.165092
