20
 generated by VMD
 C          -5.777629      -21.256744        1.840585
 N          -6.352823      -22.063784        1.332280
 H          -5.025524      -18.912600       -0.917673
 H          -5.848665      -20.022598        0.084090
 C          -5.899958      -19.652733       -1.009673
 C          -5.515170      -20.889357       -1.806453
 C          -7.222727      -18.962904       -1.381339
 C          -6.742086      -21.748283       -2.112338
 C          -8.342950      -19.880539       -1.732825
 C          -7.948187      -20.953371       -2.652486
 H          -4.762602      -21.473434       -1.250503
 H          -5.089331      -20.562550       -2.786824
 H          -7.555808      -18.439133       -0.510506
 H          -6.941436      -18.459524       -2.262962
 H          -7.035236      -22.365772       -1.249290
 H          -6.454228      -22.423532       -2.921139
 H          -9.091758      -19.302328       -2.251934
 H          -8.802914      -20.257391       -0.817169
 H          -8.810039      -21.599741       -2.832225
 H          -7.581883      -20.492645       -3.560180
