20
 generated by VMD
 C         -79.776596     -207.054276      -73.626541
 N         -80.126289     -205.987000      -73.867302
 H         -78.104004     -205.197418      -70.557961
 H         -79.279480     -208.018997      -73.537155
 C         -77.123802     -205.264496      -70.119461
 C         -76.058388     -204.554550      -70.951042
 C         -76.849716     -206.724609      -69.651672
 C         -74.690315     -204.676773      -70.265076
 C         -75.386475     -206.872589      -69.108437
 C         -74.434494     -206.197433      -70.182526
 H         -76.397804     -203.505295      -70.949768
 H         -76.015800     -204.852188      -71.952377
 H         -77.617569     -206.869186      -68.866745
 H         -77.117538     -207.299164      -70.518974
 H         -74.636993     -204.319870      -69.228561
 H         -73.792854     -204.300400      -70.734718
 H         -75.035309     -207.822662      -69.066124
 H         -75.389168     -206.278030      -68.141441
 H         -73.403046     -206.367828      -69.868172
 H         -74.551926     -206.675842      -71.188644
