20
 generated by VMD
 C         -70.146339     -198.280914      -64.288773
 N         -69.912247     -198.125626      -65.423615
 H         -73.031555     -196.724640      -66.384560
 H         -70.599686     -198.529175      -63.314598
 C         -73.516243     -195.832611      -66.781029
 C         -73.179970     -194.448410      -66.472137
 C         -74.464302     -196.078796      -67.942360
 C         -73.101898     -193.460541      -67.603897
 C         -74.848595     -194.839752      -68.825516
 C         -73.633163     -193.905090      -68.996155
 H         -72.352188     -194.455582      -65.802368
 H         -73.942047     -194.127319      -65.640274
 H         -73.980652     -196.777283      -68.560188
 H         -75.284798     -196.647049      -67.598610
 H         -72.044670     -193.199600      -67.733452
 H         -73.575020     -192.546280      -67.294273
 H         -75.744904     -194.316269      -68.462639
 H         -75.013016     -195.051056      -69.884819
 H         -72.794174     -194.536880      -69.400009
 H         -73.693413     -193.150284      -69.687965
