20
 generated by VMD
 C         -67.386292     -189.665421      -66.984085
 N         -66.601501     -190.047791      -66.187607
 H         -70.495155     -190.733475      -66.136162
 H         -68.113564     -189.089645      -67.568222
 C         -70.964180     -190.292648      -65.232925
 C         -72.171082     -191.072556      -64.629013
 C         -70.406853     -189.085175      -64.607330
 C         -73.228302     -190.069397      -64.161377
 C         -71.460327     -188.296265      -63.795387
 C         -72.626221     -189.142914      -63.208164
 H         -71.737328     -191.582428      -63.828880
 H         -72.612366     -191.740601      -65.370651
 H         -69.595032     -189.495361      -63.986065
 H         -70.069496     -188.549820      -65.583855
 H         -73.994438     -190.608734      -63.610771
 H         -73.666908     -189.564667      -64.976006
 H         -71.863533     -187.536713      -64.494659
 H         -70.879189     -187.793213      -62.951424
 H         -72.364571     -189.677658      -62.299358
 H         -73.400948     -188.362366      -62.716484
