20
 generated by VMD
 C         -38.341816     -112.694595      -35.946983
 N         -37.636242     -112.194962      -36.694401
 H         -41.017437     -114.864426      -34.917408
 H         -38.768845     -113.369583      -35.284809
 C         -42.003548     -114.532051      -35.424606
 C         -42.030342     -114.515083      -36.911652
 C         -43.079563     -113.810997      -34.724384
 C         -43.401577     -114.839157      -37.458946
 C         -44.436970     -113.984047      -35.278496
 C         -44.413563     -113.901657      -36.866138
 H         -41.170044     -115.147125      -37.259415
 H         -41.612068     -113.477631      -37.215744
 H         -43.065853     -113.897110      -33.653069
 H         -42.779266     -112.768433      -34.863258
 H         -43.761711     -115.827965      -37.307865
 H         -43.451355     -114.667305      -38.561073
 H         -44.896786     -112.994728      -34.919662
 H         -45.041241     -114.922966      -34.985294
 H         -45.423843     -114.134979      -37.351387
 H         -44.039330     -112.911026      -37.295635
