20
 generated by VMD
 C         -28.396490      -81.339661      -27.646250
 N         -29.494965      -80.938744      -27.436623
 H         -29.119349      -82.812859      -24.613367
 H         -27.441557      -81.632698      -27.831675
 C         -29.848974      -83.487373      -24.218136
 C         -30.043589      -83.905228      -22.724388
 C         -30.597317      -84.384155      -25.276848
 C         -31.460340      -84.105659      -22.447630
 C         -31.972342      -84.706238      -24.850470
 C         -32.075005      -85.175667      -23.416800
 H         -29.801687      -83.167953      -22.036932
 H         -29.547867      -84.863342      -22.543318
 H         -30.639727      -83.844536      -26.212263
 H         -30.043133      -85.316124      -25.381285
 H         -31.998976      -83.255943      -22.648754
 H         -31.601194      -84.545517      -21.373640
 H         -32.358105      -85.417328      -25.609009
 H         -32.530312      -83.872719      -25.005661
 H         -33.113583      -85.224892      -23.193880
 H         -31.642401      -86.213112      -23.331705
