20
 generated by VMD
 C          -1.455922      -10.469147        1.081344
 N          -0.796472      -11.219873        1.556882
 H          -3.779423      -13.079885        0.141328
 H          -5.225342      -12.660576        1.193447
 C          -4.543465      -13.479441        0.849693
 C          -3.781664      -13.889285        2.042175
 C          -5.424527      -14.642273        0.268030
 C          -4.611125      -14.486770        3.184896
 C          -6.332878      -15.184560        1.414214
 C          -5.486887      -15.638916        2.650812
 H          -3.120561      -13.086113        2.493567
 H          -3.027020      -14.650138        1.847803
 H          -5.970004      -14.192706       -0.546026
 H          -4.775186      -15.442807       -0.004143
 H          -5.201840      -13.745000        3.742471
 H          -3.893274      -14.919456        3.938500
 H          -6.973950      -16.028391        1.061636
 H          -7.010737      -14.370830        1.753477
 H          -6.206157      -15.906008        3.393383
 H          -4.938861      -16.543112        2.395470
