20
 generated by VMD
 C         -29.230659      -73.604828      -19.439466
 N         -29.871548      -74.546448      -19.286423
 H         -25.424236      -73.263985      -18.817001
 H         -28.531916      -72.910675      -19.342836
 C         -25.513613      -73.093704      -19.833315
 C         -25.123465      -74.234230      -20.724722
 C         -25.662647      -71.719536      -20.382877
 C         -25.712152      -74.163994      -22.148884
 C         -26.298454      -71.702782      -21.835760
 C         -25.579350      -72.714035      -22.857649
 H         -25.556356      -75.200745      -20.318983
 H         -24.101780      -74.243919      -20.847029
 H         -26.394802      -71.026093      -19.925440
 H         -24.670097      -71.255753      -20.348459
 H         -26.783501      -74.457367      -22.048506
 H         -25.177948      -74.914787      -22.802353
 H         -26.139662      -70.628929      -22.266535
 H         -27.436871      -71.894249      -21.856688
 H         -26.010326      -72.654915      -23.886465
 H         -24.559778      -72.462593      -22.817369
