20
 generated by VMD
 C         -29.098316      -81.368713      -27.705629
 N         -29.832693      -80.481216      -27.558397
 H         -28.913937      -82.314186      -23.888670
 H         -28.429317      -82.115654      -27.820557
 C         -29.390932      -83.264305      -23.760899
 C         -29.769287      -83.722420      -22.467001
 C         -29.967422      -83.864807      -24.935772
 C         -31.305408      -83.904106      -22.272636
 C         -31.565685      -84.008118      -24.825640
 C         -31.906181      -84.671295      -23.453424
 H         -29.416515      -82.926323      -21.753149
 H         -29.254498      -84.544167      -22.177561
 H         -29.684765      -83.112892      -25.717480
 H         -29.515108      -84.794968      -25.195129
 H         -31.857729      -82.957138      -22.129477
 H         -31.667671      -84.434807      -21.278814
 H         -31.850122      -84.595940      -25.656273
 H         -32.020210      -83.042305      -24.892477
 H         -33.030399      -84.735779      -23.365248
 H         -31.435505      -85.627312      -23.402317
