20
 generated by VMD
 C         -60.920830     -154.605484      -51.274284
 N         -61.065929     -154.141769      -52.273159
 H         -57.429607     -153.782501      -52.986446
 H         -60.701687     -155.011246      -50.297726
 C         -56.749214     -153.700577      -52.150681
 C         -57.249809     -153.941010      -50.809166
 C         -55.519726     -152.890671      -52.372566
 C         -56.009823     -154.200577      -49.897942
 C         -54.321697     -153.135193      -51.460403
 C         -54.781582     -153.316162      -49.905647
 H         -57.868847     -154.903488      -50.807072
 H         -57.844559     -153.051910      -50.365379
 H         -55.269512     -152.937836      -53.407127
 H         -55.884186     -151.844421      -52.208496
 H         -55.639751     -155.174652      -50.131279
 H         -56.199165     -154.140564      -48.843868
 H         -53.611473     -152.352539      -51.371025
 H         -53.829498     -154.018097      -51.962112
 H         -54.028656     -153.749405      -49.115440
 H         -54.942226     -152.319977      -49.605053
