20
 generated by VMD
 C         -21.110224      -64.814919      -17.146866
 N         -20.432655      -65.284286      -16.345970
 H         -23.813452      -63.607891      -17.852087
 H         -21.728504      -64.059753      -17.700138
 C         -24.247999      -64.596024      -18.011497
 C         -24.497780      -64.920540      -19.495377
 C         -24.977543      -65.438759      -17.064138
 C         -24.560575      -66.439812      -19.744053
 C         -24.927395      -66.950203      -17.381067
 C         -25.228630      -67.310127      -18.777451
 H         -23.718763      -64.559326      -20.313528
 H         -25.337488      -64.287094      -19.716805
 H         -24.407784      -65.390076      -16.057358
 H         -26.047329      -65.168846      -16.903234
 H         -23.604301      -66.738724      -20.039219
 H         -25.098114      -66.460052      -20.658329
 H         -25.614199      -67.432709      -16.694271
 H         -23.961395      -67.362991      -17.125231
 H         -24.867195      -68.358574      -18.926855
 H         -26.304468      -67.287468      -18.859564
