20
 generated by VMD
 C          -1.780169      -16.740282        2.853196
 N          -2.176666      -15.857089        2.297553
 H          -4.265865      -15.974808       -0.177471
 H          -4.543889      -17.180128       -1.363917
 C          -5.022895      -16.646500       -0.531362
 C          -6.382956      -15.864857       -0.849483
 C          -5.356315      -17.559807        0.676969
 C          -7.513545      -16.883810       -1.254947
 C          -6.414522      -18.549425        0.398249
 C          -7.686752      -17.887392       -0.124703
 H          -6.206537      -15.089210       -1.616699
 H          -6.717424      -15.289638        0.011672
 H          -4.475880      -18.144207        0.896032
 H          -5.463472      -17.011625        1.624979
 H          -7.236489      -17.402706       -2.237363
 H          -8.452433      -16.305315       -1.387910
 H          -6.689323      -19.154139        1.309836
 H          -6.117819      -19.252249       -0.373320
 H          -8.399015      -18.660030       -0.374840
 H          -8.015615      -17.363329        0.769534
