20
 generated by VMD
 C         -28.507044      -73.952782      -18.886539
 N         -29.464155      -73.711006      -18.271959
 H         -25.279209      -72.500519      -18.743731
 H         -27.359293      -74.170135      -19.121836
 C         -25.517975      -72.446854      -19.767864
 C         -24.975607      -73.495392      -20.677284
 C         -25.864315      -71.144257      -20.466141
 C         -25.464796      -73.521339      -22.110983
 C         -26.166807      -71.193604      -21.941162
 C         -25.475691      -72.154495      -22.771948
 H         -25.351410      -74.504776      -20.251060
 H         -23.876966      -73.478096      -20.799450
 H         -26.729052      -70.767365      -19.953058
 H         -25.020771      -70.385376      -20.453745
 H         -26.502598      -73.968399      -22.061317
 H         -24.831884      -74.305489      -22.587038
 H         -25.999264      -70.112587      -22.412909
 H         -27.273926      -71.380081      -22.072676
 H         -26.029179      -72.339157      -23.652075
 H         -24.538063      -71.780403      -23.105980
