20
 generated by VMD
 C         -11.583370      -33.701332       -9.034274
 N         -11.223367      -34.549500       -8.358962
 H         -11.607369      -37.082115       -8.098536
 H         -12.060790      -36.393585       -6.502778
 C         -12.306170      -37.157257       -7.281842
 C         -12.008470      -38.484428       -6.543317
 C         -13.671288      -37.019577       -7.867964
 C         -13.141696      -38.795609       -5.555515
 C         -14.695688      -37.257954       -6.786901
 C         -14.526499      -38.631618       -6.172059
 H         -11.028417      -38.519943       -6.057502
 H         -11.907100      -39.325684       -7.289429
 H         -13.788718      -36.029564       -8.250287
 H         -13.887527      -37.697750       -8.742583
 H         -13.001907      -38.303387       -4.588636
 H         -13.106735      -39.919167       -5.260021
 H         -15.657431      -37.204845       -7.226791
 H         -14.616123      -36.448853       -5.994826
 H         -15.235199      -38.635735       -5.376450
 H         -14.797831      -39.472927       -6.809027
