20
 generated by VMD
 C         -19.106966      -61.374146      -16.122400
 N         -19.951281      -60.758881      -16.587334
 H         -21.848167      -63.115849      -18.377531
 H         -18.396933      -62.075424      -15.530398
 C         -22.882450      -63.118923      -17.938890
 C         -24.074190      -63.520588      -18.766230
 C         -23.056965      -63.443478      -16.466782
 C         -24.734911      -64.834190      -18.258705
 C         -23.855471      -64.683372      -16.003695
 C         -25.119900      -64.854507      -16.816460
 H         -23.842911      -63.538292      -19.868208
 H         -24.824064      -62.732372      -18.658285
 H         -22.028379      -63.416676      -15.993684
 H         -23.527847      -62.672348      -15.930914
 H         -24.067190      -65.668396      -18.489002
 H         -25.697790      -64.850372      -18.767538
 H         -24.220425      -64.669167      -14.938231
 H         -23.268278      -65.611732      -16.074297
 H         -25.682831      -65.787842      -16.479864
 H         -25.573614      -63.941422      -16.550850
