20
 generated by VMD
 C         -12.254709      -32.140232       -8.580177
 N         -12.818512      -31.470625       -9.300055
 H         -10.352529      -34.437534       -7.126111
 H         -11.340755      -33.605785       -5.786662
 C         -11.085404      -34.589539       -6.257125
 C         -10.386157      -35.514553       -5.258960
 C         -12.350926      -35.265347       -6.786689
 C         -11.366619      -35.909134       -4.107092
 C         -13.353217      -35.599224       -5.649581
 C         -12.707419      -36.550037       -4.656864
 H          -9.457322      -35.146946       -4.847851
 H         -10.068000      -36.490318       -5.743553
 H         -12.876364      -34.689072       -7.564951
 H         -12.150468      -36.235504       -7.233641
 H         -11.602846      -35.117870       -3.366455
 H         -10.820265      -36.626133       -3.525150
 H         -14.191743      -36.106461       -6.112067
 H         -13.795611      -34.655468       -5.223741
 H         -13.364117      -36.690235       -3.834644
 H         -12.564586      -37.515125       -5.137464
