20
 generated by VMD
 C         -43.269135     -121.174339      -35.567711
 N         -43.107391     -120.529259      -34.603508
 H         -44.532658     -121.905731      -38.889210
 H         -43.123165     -121.795227      -36.465500
 C         -44.520054     -120.893875      -39.166710
 C         -43.284367     -120.222824      -39.718624
 C         -45.473255     -120.055855      -38.526272
 C         -43.589005     -119.006493      -40.569862
 C         -45.951935     -118.854988      -39.352448
 C         -44.597038     -118.079819      -39.859097
 H         -42.755718     -120.899178      -40.297394
 H         -42.838692     -119.909645      -38.755383
 H         -46.258511     -120.672615      -38.141537
 H         -45.017014     -119.617882      -37.608894
 H         -43.929947     -119.344505      -41.628334
 H         -42.795509     -118.300415      -40.714195
 H         -46.606834     -118.102638      -38.902328
 H         -46.422031     -119.267174      -40.407459
 H         -44.982319     -117.265556      -40.494881
 H         -44.006832     -117.759674      -38.946651
