20
 generated by VMD
 C         -67.383980     -192.008987      -67.407753
 N         -67.598495     -192.770859      -66.578934
 H         -69.986633     -189.797684      -65.560699
 H         -67.236183     -191.172272      -68.135002
 C         -70.977051     -189.955505      -65.235313
 C         -71.765388     -190.924896      -66.089653
 C         -71.573822     -189.307617      -63.964390
 C         -73.002304     -191.488403      -65.418083
 C         -73.004745     -189.728256      -63.734531
 C         -73.223946     -191.222504      -63.995491
 H         -71.103821     -191.810043      -66.338692
 H         -72.148697     -190.353928      -66.915993
 H         -71.004005     -189.804169      -63.166641
 H         -71.460968     -188.261429      -63.992916
 H         -73.048630     -192.581207      -65.655991
 H         -73.789810     -191.173859      -66.086266
 H         -73.526184     -189.051727      -64.379883
 H         -73.358879     -189.378220      -62.716389
 H         -72.449448     -191.862488      -63.376144
 H         -74.186844     -191.396698      -63.654148
