20
 generated by VMD
 C         -68.288971     -179.640915      -58.514259
 N         -67.554131     -179.288696      -57.692112
 H         -66.289886     -176.728287      -59.604099
 H         -69.026878     -179.815567      -59.304241
 C         -65.550827     -175.857788      -59.568470
 C         -66.025894     -174.670166      -60.486462
 C         -64.092033     -176.028198      -59.617203
 C         -65.118408     -173.470428      -60.612492
 C         -63.311489     -174.733994      -59.581852
 C         -63.638824     -173.787521      -60.726444
 H         -66.975876     -174.314529      -60.155533
 H         -66.238983     -175.343842      -61.432709
 H         -63.663979     -176.710663      -58.887100
 H         -63.833069     -176.474243      -60.665390
 H         -65.242645     -172.950699      -59.665825
 H         -65.504166     -172.801117      -61.364395
 H         -62.235115     -175.093262      -59.581982
 H         -63.401184     -174.199051      -58.667049
 H         -63.063591     -172.867950      -60.551994
 H         -63.284897     -174.387985      -61.677097
