20
 generated by VMD
 C         -31.126934      -77.625771      -25.606617
 N         -31.611198      -77.933044      -26.569952
 H         -29.314436      -78.411942      -22.894056
 H         -30.429638      -77.497894      -24.898764
 C         -28.945080      -79.387611      -23.131880
 C         -27.498819      -79.575951      -23.427866
 C         -29.690823      -80.571068      -22.823566
 C         -26.845339      -80.127350      -22.127195
 C         -29.283566      -81.118217      -21.479950
 C         -27.676958      -81.183479      -21.402241
 H         -27.040596      -78.615829      -23.565973
 H         -27.502291      -80.307236      -24.264208
 H         -30.725685      -80.364334      -22.801033
 H         -29.498230      -81.293671      -23.726688
 H         -26.615078      -79.266258      -21.539627
 H         -25.822187      -80.503075      -22.296417
 H         -29.805222      -82.085098      -21.336163
 H         -29.744993      -80.418800      -20.850676
 H         -27.529499      -81.123268      -20.266312
 H         -27.285339      -82.172760      -21.696150
