20
 generated by VMD
 C         -49.231613     -140.931778      -45.499065
 N         -48.239563     -141.288940      -45.102245
 H         -51.329903     -138.615662      -45.991299
 H         -50.151222     -140.658386      -45.947971
 C         -52.019409     -139.365585      -46.249729
 C         -52.641994     -139.462677      -47.607563
 C         -52.873642     -139.868088      -45.180656
 C         -53.362732     -140.676331      -48.009537
 C         -53.426685     -141.252594      -45.495739
 C         -54.221298     -141.221497      -46.797169
 H         -51.936893     -139.228455      -48.443336
 H         -53.452461     -138.774231      -47.604809
 H         -52.214756     -139.911102      -44.293869
 H         -53.597012     -138.980789      -44.959831
 H         -52.662888     -141.518295      -48.454792
 H         -54.132782     -140.489197      -48.837543
 H         -54.053139     -141.332321      -44.602600
 H         -52.694935     -142.023651      -45.446136
 H         -54.619541     -142.154877      -47.102440
 H         -55.009975     -140.598923      -46.555794
