20
 generated by VMD
 C         -60.147552     -153.323441      -51.779465
 N         -60.263935     -152.218521      -51.374020
 H         -57.204716     -153.930954      -49.820972
 H         -60.029003     -154.313766      -52.149590
 C         -56.446037     -153.201813      -50.113014
 C         -55.182499     -153.282028      -49.283028
 C         -56.739334     -151.859680      -50.778065
 C         -54.017540     -152.809204      -50.363216
 C         -55.574291     -151.171127      -51.517525
 C         -54.245274     -151.362808      -50.780140
 H         -54.887722     -154.375778      -49.064495
 H         -55.149128     -152.879990      -48.231930
 H         -57.515221     -151.995087      -51.563080
 H         -57.093079     -151.224869      -49.969036
 H         -53.881397     -153.438522      -51.242168
 H         -53.045837     -152.921509      -49.878376
 H         -55.591976     -150.024414      -51.613556
 H         -55.388138     -151.674576      -52.531708
 H         -53.392509     -150.977722      -51.351559
 H         -54.123077     -150.785507      -49.805157
