20
 generated by VMD
 C         -63.160038     -173.059769      -55.600872
 N         -62.933498     -173.939972      -54.845882
 H         -61.856403     -171.649719      -58.063286
 H         -63.500019     -172.275558      -56.292522
 C         -62.723213     -171.038940      -58.291523
 C         -62.450439     -169.556061      -58.015835
 C         -63.746807     -171.667175      -59.186100
 C         -63.679176     -168.743759      -58.334213
 C         -64.859848     -170.689514      -59.417816
 C         -64.916260     -169.598221      -58.326378
 H         -61.545467     -169.061890      -58.605156
 H         -62.218578     -169.465134      -57.017735
 H         -63.347050     -172.009903      -60.154613
 H         -64.208260     -172.569992      -58.524780
 H         -63.608418     -168.217468      -59.222721
 H         -63.814434     -167.979019      -57.580719
 H         -65.925804     -171.077255      -59.402519
 H         -64.724312     -170.230545      -60.463409
 H         -65.799072     -168.937897      -58.337757
 H         -64.986603     -170.204514      -57.395309
