20
 generated by VMD
 C         -13.065519      -28.121122       -3.905327
 N         -13.925467      -27.524332       -4.295238
 H         -10.665949      -28.973282       -2.749106
 H         -10.253719      -27.588661       -3.677791
 C          -9.784698      -28.522413       -3.205990
 C          -9.314127      -29.507366       -4.360984
 C          -8.612179      -28.062422       -2.404899
 C          -8.176837      -28.896038       -5.218059
 C          -7.571996      -27.397955       -3.241214
 C          -7.037223      -28.337454       -4.357181
 H         -10.220317      -29.762619       -4.947856
 H          -8.883451      -30.325993       -3.802896
 H          -8.920425      -27.387772       -1.552496
 H          -8.140265      -28.932093       -1.922941
 H          -8.619789      -28.053135       -5.699290
 H          -7.714061      -29.625668       -5.890440
 H          -6.778749      -27.001013       -2.611239
 H          -8.104849      -26.594406       -3.780647
 H          -6.252678      -27.798180       -4.983834
 H          -6.549809      -29.231236       -3.950154
