20
 generated by VMD
 C         -50.079388     -144.657639      -44.419136
 N         -49.330673     -143.928818      -44.839687
 H         -52.410744     -142.195282      -45.702759
 H         -50.724342     -145.394592      -43.981449
 C         -52.983978     -142.237411      -46.602497
 C         -52.326668     -142.222717      -47.909538
 C         -54.431011     -141.626221      -46.546238
 C         -53.310032     -142.561661      -49.081810
 C         -55.342022     -142.012512      -47.730968
 C         -54.681091     -141.819244      -49.103035
 H         -51.473110     -143.017075      -47.766220
 H         -51.899284     -141.242996      -48.173416
 H         -54.958069     -142.018387      -45.639874
 H         -54.339680     -140.471848      -46.418713
 H         -53.600910     -143.566345      -49.104965
 H         -52.674377     -142.440964      -49.914692
 H         -56.350899     -141.463486      -47.723934
 H         -55.687878     -143.043564      -47.628540
 H         -55.331051     -142.240814      -49.882664
 H         -54.623901     -140.741516      -49.229374
