20
 generated by VMD
 C         -18.192934      -48.621410       -7.271986
 N         -18.854921      -49.369621       -6.769369
 H         -16.200724      -47.660366      -10.076427
 H         -16.291033      -49.072773      -11.190242
 C         -16.340479      -47.987148      -11.117047
 C         -15.151522      -47.382210      -11.969039
 C         -17.697727      -47.428463      -11.631317
 C         -15.343233      -47.249233      -13.456741
 C         -17.793625      -47.597233      -13.161720
 C         -16.726629      -46.790569      -13.909827
 H         -14.114495      -47.695229      -11.637479
 H         -15.078575      -46.343216      -11.618544
 H         -18.551035      -47.968845      -11.197963
 H         -17.864437      -46.362598      -11.331750
 H         -15.046065      -48.193104      -13.937802
 H         -14.686481      -46.490566      -13.868309
 H         -18.825539      -47.165642      -13.384845
 H         -17.745935      -48.675598      -13.514802
 H         -16.813000      -46.953403      -14.978142
 H         -16.838358      -45.720974      -13.673209
