20
 generated by VMD
 C         -13.703631      -28.035860       -2.861265
 N         -14.038964      -27.176369       -3.473058
 H         -10.378087      -28.179153       -3.115425
 H          -9.875896      -26.989016       -4.281222
 C          -9.472036      -27.697350       -3.600407
 C          -8.890153      -28.881981       -4.344169
 C          -8.484966      -27.051407       -2.581248
 C          -7.558980      -28.588665       -5.014947
 C          -7.219177      -26.673674       -3.403483
 C          -6.583354      -27.973103       -3.972083
 H          -9.691236      -29.127615       -5.037677
 H          -8.780011      -29.784473       -3.709718
 H          -8.957437      -26.137905       -2.155784
 H          -8.366968      -27.714998       -1.650399
 H          -7.674911      -27.919243       -5.840353
 H          -7.087292      -29.457767       -5.339060
 H          -6.496520      -26.213388       -2.689662
 H          -7.457745      -25.928074       -4.147245
 H          -5.634182      -27.700542       -4.428658
 H          -6.415964      -28.749050       -3.158989
