20
 generated by VMD
 C         -10.947962      -34.221359       -8.851633
 N         -11.266637      -33.156395       -8.802958
 H         -11.490099      -38.076771       -8.006747
 H         -12.089664      -37.097500       -6.731264
 C         -12.336138      -37.979519       -7.349955
 C         -12.410563      -39.267708       -6.557935
 C         -13.681283      -37.649670       -7.997653
 C         -13.616819      -39.296417       -5.594029
 C         -14.845603      -37.722668       -7.104719
 C         -14.950949      -39.004303       -6.291647
 H         -11.501028      -39.469479       -5.964922
 H         -12.483096      -40.162350       -7.203327
 H         -13.529005      -36.618408       -8.467737
 H         -13.822914      -38.240372       -8.905038
 H         -13.447874      -38.556606       -4.747399
 H         -13.624361      -40.285320       -5.021764
 H         -15.771024      -37.504494       -7.696128
 H         -14.733898      -36.926369       -6.423806
 H         -15.647983      -38.800842       -5.507048
 H         -15.338795      -39.814468       -6.901405
