20
 generated by VMD
 C         -20.415918      -57.305077      -16.666111
 N         -19.746214      -56.353043      -16.558567
 H         -22.661507      -60.084866      -17.966105
 H         -20.837383      -58.202812      -16.580500
 C         -22.633453      -60.655075      -16.967653
 C         -23.450560      -60.353802      -15.787429
 C         -21.301979      -61.358135      -16.784933
 C         -22.626610      -60.436306      -14.482934
 C         -20.941824      -62.067665      -15.500188
 C         -21.943659      -61.797222      -14.345990
 H         -24.106825      -61.180634      -15.764751
 H         -23.958120      -59.371361      -15.874756
 H         -21.026976      -61.929588      -17.671198
 H         -20.569710      -60.513454      -16.861774
 H         -23.229242      -60.206951      -13.599633
 H         -21.808216      -59.675129      -14.530330
 H         -19.948793      -61.799366      -15.187829
 H         -21.063095      -63.067627      -15.834338
 H         -22.749052      -62.558853      -14.476941
 H         -21.538315      -62.091042      -13.327665
