20
 generated by VMD
 C         -29.899660      -91.659767      -25.422934
 N         -29.051985      -92.183655      -24.865236
 H         -32.774288      -89.894608      -26.521946
 H         -30.560278      -91.057823      -25.976658
 C         -33.107075      -90.268875      -27.432608
 C         -34.103497      -91.399994      -27.310656
 C         -33.138775      -89.579453      -28.687094
 C         -35.593822      -91.063866      -27.669279
 C         -34.640572      -89.068916      -28.868708
 C         -35.720337      -90.140717      -28.953239
 H         -34.174492      -91.980362      -26.340452
 H         -33.888844      -92.217514      -27.994638
 H         -32.460415      -88.741005      -28.552145
 H         -32.723759      -90.263832      -29.418505
 H         -36.025814      -90.472641      -26.874683
 H         -36.262589      -91.995506      -27.821617
 H         -34.546074      -88.513069      -29.839991
 H         -34.906563      -88.234818      -28.210739
 H         -36.733963      -89.758636      -29.113918
 H         -35.514183      -90.658661      -29.873358
