20
 generated by VMD
 C         -27.583244      -81.146065      -27.450619
 N         -28.664736      -81.547676      -27.584484
 H         -30.126495      -83.390724      -25.447636
 H         -26.682003      -80.776840      -27.059088
 C         -30.811390      -83.986122      -24.870556
 C         -30.480026      -84.065300      -23.415306
 C         -31.283400      -85.294571      -25.520178
 C         -31.660221      -84.640991      -22.725117
 C         -32.539627      -85.573090      -24.798468
 C         -32.447948      -85.872581      -23.307550
 H         -30.185633      -83.077568      -23.073236
 H         -29.489952      -84.712006      -23.348305
 H         -31.615147      -85.319870      -26.581545
 H         -30.538872      -86.064720      -25.312309
 H         -32.340923      -83.861259      -22.454149
 H         -31.193150      -84.947876      -21.691660
 H         -33.078213      -86.557327      -25.155535
 H         -33.291714      -84.784325      -24.982096
 H         -33.386364      -85.932045      -22.734194
 H         -31.831484      -86.755661      -23.031483
