20
 generated by VMD
 C         -59.900093     -171.647217      -55.240841
 N         -59.525700     -172.683929      -54.878956
 H         -63.051266     -170.472733      -56.507210
 H         -60.172474     -170.720245      -55.686707
 C         -63.404594     -169.548645      -56.908749
 C         -62.742409     -168.374329      -57.309994
 C         -64.906616     -169.217926      -56.878761
 C         -63.064938     -167.844772      -58.820198
 C         -65.454979     -168.744461      -58.266247
 C         -64.630890     -167.607971      -58.933590
 H         -61.571667     -168.659317      -57.312920
 H         -62.903763     -167.622437      -56.574570
 H         -65.306335     -170.187210      -56.522022
 H         -64.972519     -168.486359      -56.151386
 H         -62.730259     -168.630875      -59.542912
 H         -62.353722     -166.959961      -58.991436
 H         -66.490608     -168.405746      -58.149155
 H         -65.394730     -169.663422      -58.910446
 H         -64.853645     -167.525345      -60.031502
 H         -64.900269     -166.673691      -58.404343
