20
 generated by VMD
 C         -41.047138     -102.533806      -35.001690
 N         -41.529549     -102.973488      -35.956982
 H         -39.683556     -104.162277      -32.185295
 H         -40.530830     -102.074928      -34.105244
 C         -38.703293     -104.792976      -32.430641
 C         -37.462856     -104.280617      -33.014462
 C         -38.732437     -106.188576      -31.785864
 C         -36.393532     -104.265190      -31.894352
 C         -37.789635     -106.150986      -30.597628
 C         -36.420097     -105.659615      -31.135582
 H         -37.500187     -103.256729      -33.304176
 H         -37.141293     -104.760933      -33.935394
 H         -39.605457     -106.656067      -31.516830
 H         -38.261368     -106.805275      -32.603683
 H         -36.550278     -103.438690      -31.203823
 H         -35.400944     -103.972214      -32.203701
 H         -37.671799     -107.089798      -30.123835
 H         -38.164772     -105.368103      -29.871113
 H         -35.832222     -105.466660      -30.207561
 H         -35.899879     -106.404114      -31.740820
