20
 generated by VMD
 C          -2.814730       -9.134319        0.056569
 N          -1.676670       -9.187918        0.110191
 H          -2.227950      -11.753605        2.517729
 H          -2.788797      -12.233788        4.237326
 C          -2.929912      -12.398282        3.108731
 C          -2.647706      -13.861808        2.751267
 C          -4.316654      -11.968366        2.563028
 C          -3.807137      -14.836992        2.967452
 C          -5.425429      -12.868678        2.933315
 C          -5.099902      -14.260831        2.348299
 H          -1.814548      -14.305277        3.366328
 H          -2.399598      -14.029404        1.698159
 H          -4.559445      -10.983890        3.019034
 H          -4.235330      -11.831004        1.487871
 H          -3.989509      -14.905191        4.036210
 H          -3.619057      -15.877397        2.584003
 H          -6.391084      -12.500656        2.504780
 H          -5.509222      -12.901663        4.033013
 H          -5.965473      -14.859658        2.473771
 H          -4.957854      -14.160632        1.284357
