20
 generated by VMD
 C         -79.083054     -208.212997      -75.662025
 N         -78.315201     -207.393539      -75.399567
 H         -78.754395     -210.311859      -73.571510
 H         -79.751442     -208.992416      -76.017487
 C         -78.582161     -210.066269      -72.540207
 C         -77.353333     -209.155396      -72.471497
 C         -78.941475     -211.138580      -71.440742
 C         -77.110062     -208.853821      -70.935349
 C         -78.479599     -210.728058      -70.087746
 C         -77.107567     -210.044754      -70.071739
 H         -77.256142     -208.286301      -73.158379
 H         -76.525528     -209.797333      -72.912956
 H         -80.005249     -211.371475      -71.390976
 H         -78.375679     -212.021988      -71.834053
 H         -77.928329     -208.110245      -70.643295
 H         -76.203377     -208.219788      -70.829063
 H         -78.633980     -211.678940      -69.415161
 H         -79.177223     -210.034683      -69.611954
 H         -77.067772     -209.754181      -69.017281
 H         -76.195435     -210.594620      -70.290398
