20
 generated by VMD
 C         -27.918041      -81.197929      -27.505388
 N         -29.051270      -81.284012      -27.524750
 H         -29.773180      -83.186172      -24.991611
 H         -26.803249      -81.123108      -27.786842
 C         -30.296352      -84.003212      -24.549051
 C         -30.216965      -83.916878      -23.117392
 C         -31.023270      -84.810509      -25.498161
 C         -31.621248      -84.394203      -22.552355
 C         -32.350842      -85.291809      -24.854357
 C         -32.260811      -85.539391      -23.293770
 H         -29.969624      -82.916000      -22.759949
 H         -29.561003      -84.638283      -22.759165
 H         -31.208176      -84.148628      -26.366068
 H         -30.287069      -85.586548      -25.696318
 H         -32.438984      -83.559578      -22.481142
 H         -31.543858      -84.560410      -21.529240
 H         -32.710289      -86.068581      -25.417030
 H         -33.147285      -84.521576      -25.067245
 H         -33.310490      -85.728127      -22.985035
 H         -31.763588      -86.453651      -23.219677
