20
 generated by VMD
 C         -20.044851      -57.358231      -16.837934
 N         -19.174471      -57.646847      -17.541948
 H         -22.430971      -59.629784      -17.454355
 H         -20.764311      -57.055424      -15.931155
 C         -22.477205      -60.389221      -16.611071
 C         -23.796650      -61.156151      -16.412716
 C         -21.319965      -60.787243      -15.788785
 C         -23.828382      -62.388580      -15.359093
 C         -21.380167      -62.338963      -15.591107
 C         -22.521133      -62.496807      -14.588444
 H         -23.886160      -61.685200      -17.337242
 H         -24.626144      -60.462273      -16.140480
 H         -20.402100      -60.512131      -16.290211
 H         -21.390936      -60.159744      -14.891273
 H         -23.906845      -63.309437      -15.918342
 H         -24.674994      -62.323341      -14.714336
 H         -20.517124      -62.585793      -15.013145
 H         -21.413876      -62.915810      -16.537951
 H         -22.506729      -63.439182      -14.087651
 H         -22.403448      -61.662899      -13.843879
