20
 generated by VMD
 C         -70.777817     -181.728363      -64.104324
 N         -69.937920     -182.444778      -63.708977
 H         -68.662025     -180.925323      -61.554600
 H         -71.552155     -181.009216      -64.428673
 C         -67.741966     -180.797607      -61.093590
 C         -66.797279     -181.824860      -60.608139
 C         -67.297409     -179.357880      -60.533699
 C         -65.277573     -181.472900      -60.868423
 C         -65.853317     -178.997726      -60.723011
 C         -64.805870     -180.060532      -60.329918
 H         -66.839218     -182.784134      -61.019028
 H         -66.885292     -181.876587      -59.565327
 H         -67.935898     -178.554184      -61.085884
 H         -67.729507     -179.381210      -59.482925
 H         -64.999634     -181.530594      -61.980244
 H         -64.556915     -182.175507      -60.436573
 H         -65.614388     -178.007385      -60.315617
 H         -65.804466     -178.785416      -61.811127
 H         -63.787682     -179.830688      -60.613216
 H         -64.899101     -180.058228      -59.269363
