20
 generated by VMD
 C         -69.225128     -180.858353      -62.472435
 N         -70.118530     -180.200058      -62.164619
 H         -66.962273     -181.279144      -59.965347
 H         -68.360016     -181.506760      -62.653236
 C         -66.479019     -180.295135      -60.123398
 C         -65.060852     -180.333984      -60.663471
 C         -67.014549     -179.013931      -59.625061
 C         -64.665146     -179.064560      -61.465748
 C         -66.656197     -177.856949      -60.498665
 C         -65.030853     -177.778351      -60.632637
 H         -64.977356     -181.156036      -61.350643
 H         -64.416138     -180.466171      -59.853424
 H         -68.112587     -179.126541      -59.415543
 H         -66.540382     -178.810562      -58.644245
 H         -65.140930     -179.122177      -62.459347
 H         -63.604973     -179.058670      -61.768940
 H         -66.879623     -176.959503      -59.927505
 H         -67.133820     -177.854767      -61.508152
 H         -64.588402     -176.785980      -60.900581
 H         -64.577606     -177.930588      -59.626152
