20
 generated by VMD
 C          -1.514876      -11.050180        1.536556
 N          -1.034842      -11.949336        1.080001
 H          -3.750585      -13.101048        0.171680
 H          -5.321214      -12.720180        0.738120
 C          -4.576419      -13.535454        0.826842
 C          -4.058948      -13.847762        2.166553
 C          -5.128574      -14.865976        0.162561
 C          -5.052754      -14.499818        3.128906
 C          -6.171863      -15.559086        1.021237
 C          -5.656648      -15.795015        2.462016
 H          -3.688129      -12.967157        2.669405
 H          -3.266479      -14.627387        2.045387
 H          -5.480120      -14.618253       -0.861811
 H          -4.281064      -15.519365       -0.052903
 H          -5.874192      -13.828386        3.408159
 H          -4.594588      -14.800480        4.068003
 H          -6.444259      -16.537670        0.658803
 H          -7.102975      -14.971183        1.151247
 H          -6.479448      -16.134981        3.091833
 H          -4.945819      -16.616497        2.523211
