20
 generated by VMD
 C         -23.747925      -69.426010      -16.837336
 N         -24.134104      -69.902092      -15.849289
 H         -23.886347      -66.635788      -18.859858
 H         -23.490860      -69.042572      -17.855026
 C         -24.327883      -67.496033      -19.276665
 C         -23.907309      -68.198792      -20.514009
 C         -25.849075      -67.454002      -19.264620
 C         -24.605522      -69.665314      -20.775940
 C         -26.609144      -68.721634      -19.670830
 C         -26.140135      -69.476814      -20.896996
 H         -22.820431      -68.405884      -20.384012
 H         -24.019539      -67.524178      -21.245140
 H         -26.231844      -67.194786      -18.248302
 H         -26.402649      -66.618660      -19.903399
 H         -24.321238      -70.291512      -19.911268
 H         -24.203775      -70.144257      -21.650558
 H         -27.692528      -68.571976      -19.817543
 H         -26.516699      -69.464745      -18.843678
 H         -26.514776      -70.466179      -21.029644
 H         -26.325480      -68.946014      -21.829922
