20
 generated by VMD
 C         -35.447777      -97.398079      -25.585505
 N         -34.818527      -97.794601      -26.501089
 H         -35.605091      -94.539314      -27.779825
 H         -36.143578      -97.134987      -24.886686
 C         -35.289982      -94.402458      -28.805262
 C         -35.995132      -95.309937      -29.776003
 C         -33.925648      -93.903183      -29.017756
 C         -35.731945      -94.823608      -31.208096
 C         -33.743206      -93.282982      -30.387358
 C         -34.270756      -94.450882      -31.480051
 H         -37.025101      -95.370575      -29.593147
 H         -35.576515      -96.332451      -29.745569
 H         -33.812241      -93.163139      -28.255798
 H         -33.296856      -94.775833      -28.808590
 H         -36.256279      -93.911690      -31.412115
 H         -36.116196      -95.615143      -31.924465
 H         -32.713280      -93.147469      -30.598789
 H         -34.321766      -92.261635      -30.371908
 H         -34.228371      -94.000763      -32.599144
 H         -33.515041      -95.182213      -31.569117
