20
 generated by VMD
 C         -20.477362      -57.208954      -16.934963
 N         -20.777908      -56.416924      -16.076437
 H         -22.328411      -59.835667      -17.887703
 H         -20.373116      -57.846836      -17.706028
 C         -22.086267      -60.214405      -16.833942
 C         -22.653526      -59.453869      -15.617554
 C         -21.722260      -61.616177      -16.775446
 C         -22.091162      -59.979427      -14.291211
 C         -20.908367      -61.972862      -15.541397
 C         -21.554842      -61.484283      -14.233652
 H         -23.766693      -59.621456      -15.525362
 H         -22.628904      -58.294914      -15.724541
 H         -22.620022      -62.207638      -16.813196
 H         -21.278166      -61.823875      -17.735294
 H         -22.779619      -59.871635      -13.500210
 H         -21.177694      -59.393299      -14.122952
 H         -19.910667      -61.483185      -15.801789
 H         -20.584974      -63.032181      -15.584274
 H         -22.372776      -62.125492      -13.947188
 H         -20.781227      -61.496204      -13.447029
