20
 generated by VMD
 C         -19.988312      -51.627296      -10.220490
 N         -20.776371      -51.194008       -9.561378
 H         -17.522087      -48.925621      -10.262553
 H         -18.842453      -51.989258      -10.744933
 C         -17.156824      -49.059086      -11.301110
 C         -16.333378      -50.225262      -11.627314
 C         -17.433300      -47.873386      -12.225858
 C         -16.608517      -50.579666      -13.054544
 C         -17.381073      -48.171467      -13.660473
 C         -16.423048      -49.329052      -13.939465
 H         -16.462753      -51.106922      -10.942056
 H         -15.297188      -49.936878      -11.435315
 H         -18.374104      -47.416183      -11.964405
 H         -16.594437      -47.243156      -11.981354
 H         -17.605917      -51.113548      -13.121800
 H         -15.877278      -51.350338      -13.441539
 H         -17.173365      -47.286320      -14.238868
 H         -18.402014      -48.500084      -14.141409
 H         -16.608780      -49.703743      -14.970364
 H         -15.347491      -49.026268      -13.799579
