20
 generated by VMD
 C         -12.718132      -27.952841       -4.218858
 N         -13.806984      -27.739344       -4.424916
 H         -10.506895      -29.324188       -2.441723
 H         -10.561543      -28.110668       -3.580024
 C          -9.882861      -28.848515       -3.178673
 C          -9.430363      -29.653469       -4.390990
 C          -8.773844      -28.208675       -2.406391
 C          -8.366456      -28.890604       -5.217098
 C          -7.644818      -27.640001       -3.210389
 C          -7.224404      -28.488218       -4.403756
 H         -10.215269      -29.882826       -5.108166
 H          -8.878579      -30.535538       -4.022852
 H          -9.205708      -27.455513       -1.727128
 H          -8.461197      -28.993113       -1.742912
 H          -8.867598      -28.015383       -5.665285
 H          -8.048223      -29.637642       -5.981638
 H          -6.787492      -27.476269       -2.593582
 H          -8.009684      -26.694651       -3.653499
 H          -6.497256      -27.864550       -4.973305
 H          -6.660960      -29.259750       -3.958640
