20
 generated by VMD
 C         -49.592827     -127.739006      -38.978210
 N         -49.883167     -126.750824      -38.446507
 H         -46.963802     -125.689896      -41.038673
 H         -49.522736     -128.707169      -39.486107
 C         -46.030178     -125.003426      -40.915035
 C         -44.854885     -125.486794      -40.251305
 C         -46.392841     -123.524483      -40.756519
 C         -43.650135     -124.851341      -40.930828
 C         -45.213036     -122.790009      -41.548969
 C         -43.798748     -123.252731      -40.966019
 H         -44.741219     -126.598373      -40.396210
 H         -44.922230     -125.299889      -39.120609
 H         -47.304710     -123.346390      -41.436054
 H         -46.583725     -123.237785      -39.772190
 H         -43.679573     -125.279106      -41.937222
 H         -42.717102     -125.208710      -40.509369
 H         -45.373749     -121.715965      -41.442055
 H         -45.158791     -123.036873      -42.634998
 H         -43.029861     -122.923813      -41.623440
 H         -43.465271     -122.847633      -39.983921
