20
 generated by VMD
 C          -3.769731      -17.963707        1.940318
 N          -3.115435      -18.426632        2.718994
 H          -5.703468      -20.555212        0.535023
 H          -6.055012      -21.222462       -1.102496
 C          -6.171858      -20.347456       -0.426150
 C          -5.482125      -19.115108       -1.124680
 C          -7.634768      -19.999857       -0.099664
 C          -6.253413      -18.501457       -2.331199
 C          -8.351383      -19.392097       -1.327654
 C          -7.761497      -18.142454       -1.936338
 H          -4.391873      -19.441120       -1.355145
 H          -5.400698      -18.284756       -0.442578
 H          -8.172213      -20.822899        0.165597
 H          -7.717702      -19.407465        0.760321
 H          -6.254644      -19.201921       -3.122164
 H          -5.797057      -17.590927       -2.622912
 H          -9.340623      -19.074730       -0.971586
 H          -8.504266      -20.196085       -2.010599
 H          -8.320050      -17.727667       -2.781002
 H          -7.721259      -17.281729       -1.227572
