20
 generated by VMD
 C         -38.188889     -110.154083      -36.131577
 N         -37.616020     -109.181847      -36.232925
 H         -40.140148     -113.474579      -36.225555
 H         -38.597786     -111.168579      -36.315880
 C         -41.142536     -113.149200      -36.017689
 C         -42.298794     -113.861176      -36.651928
 C         -41.512562     -112.006859      -35.113361
 C         -43.389698     -114.113480      -35.647659
 C         -42.588451     -112.333069      -34.129688
 C         -43.784306     -112.949257      -34.727711
 H         -41.951435     -114.792213      -37.141895
 H         -42.690403     -113.190292      -37.381046
 H         -40.764378     -111.475319      -34.516468
 H         -42.055309     -111.209389      -35.771408
 H         -43.301113     -114.980644      -35.068451
 H         -44.308712     -114.408279      -36.256607
 H         -42.891804     -111.347885      -33.546299
 H         -42.015480     -113.001595      -33.408352
 H         -44.493279     -113.245636      -33.977341
 H         -44.279160     -112.212746      -35.381397
