20
 generated by VMD
 C         -62.797600     -174.731262      -54.613338
 N         -63.195446     -174.235870      -55.544224
 H         -63.330582     -173.135956      -58.031387
 H         -62.518578     -175.124893      -53.648930
 C         -63.716774     -172.147171      -58.455101
 C         -63.857674     -170.948090      -57.541000
 C         -64.437492     -172.117615      -59.823280
 C         -63.833393     -169.588562      -58.247612
 C         -64.243538     -170.700958      -60.505287
 C         -64.659554     -169.639816      -59.501797
 H         -62.940411     -170.870911      -56.738544
 H         -64.721489     -171.031372      -56.977512
 H         -63.894180     -172.868271      -60.464306
 H         -65.551224     -172.347443      -59.543583
 H         -62.733070     -169.399048      -58.609089
 H         -64.096565     -168.701019      -57.529858
 H         -64.730690     -170.558426      -61.443703
 H         -63.188004     -170.501297      -60.807991
 H         -64.362793     -168.716827      -60.063217
 H         -65.776375     -169.638779      -59.325951
