20
 generated by VMD
 C         -21.755911      -66.771202      -16.807880
 N         -20.997219      -66.916267      -15.941149
 H         -24.216606      -64.551689      -18.059330
 H         -22.501242      -66.760178      -17.713150
 C         -24.385397      -65.619522      -18.449326
 C         -24.120617      -66.016922      -19.874571
 C         -25.831255      -66.048553      -18.064528
 C         -24.306147      -67.551460      -20.029572
 C         -26.131641      -67.558136      -18.269167
 C         -25.722458      -68.056313      -19.752422
 H         -23.032940      -65.721848      -20.194927
 H         -24.800896      -65.367012      -20.496323
 H         -26.045923      -66.009315      -17.038126
 H         -26.463266      -65.425171      -18.632786
 H         -23.631687      -68.050545      -19.275673
 H         -24.021307      -67.986687      -21.010004
 H         -27.197506      -67.685158      -17.919046
 H         -25.503023      -68.171745      -17.604435
 H         -25.877886      -69.110069      -19.976635
 H         -26.322443      -67.462433      -20.460625
