20
 generated by VMD
 C         -57.410843     -162.556244      -56.277534
 N         -57.162731     -162.217392      -57.312252
 H         -59.634186     -165.207947      -55.053188
 H         -57.739727     -162.901245      -55.295403
 C         -60.570011     -164.618927      -54.834461
 C         -60.909615     -164.302551      -53.437534
 C         -61.760662     -164.636734      -55.714439
 C         -62.195652     -163.709641      -53.088348
 C         -62.815125     -163.555481      -55.464966
 C         -63.309891     -163.776291      -54.066193
 H         -60.018372     -163.830536      -52.874924
 H         -60.917889     -165.353668      -52.918072
 H         -61.312527     -164.546463      -56.710739
 H         -62.261276     -165.551880      -55.802731
 H         -61.968979     -162.652512      -52.918602
 H         -62.576782     -164.188507      -52.118073
 H         -63.624931     -163.779800      -56.213760
 H         -62.444267     -162.621719      -55.789272
 H         -64.085541     -163.005203      -53.961838
 H         -63.866074     -164.737549      -54.183205
