20
 generated by VMD
 C         -69.380310     -180.930405      -62.327049
 N         -70.162003     -180.102295      -62.250336
 H         -67.038002     -181.333084      -60.255516
 H         -68.576027     -181.697754      -62.343327
 C         -66.485237     -180.404190      -60.476875
 C         -65.016098     -180.428238      -60.546974
 C         -67.161812     -179.248962      -59.811138
 C         -64.438484     -179.139526      -61.197506
 C         -66.706573     -177.958908      -60.586338
 C         -65.102631     -177.808456      -60.732849
 H         -64.754402     -181.348251      -61.137463
 H         -64.491547     -180.717163      -59.569405
 H         -68.286049     -179.222244      -59.759094
 H         -66.809853     -179.220139      -58.824833
 H         -64.660042     -179.082092      -62.350361
 H         -63.338665     -179.117294      -60.964996
 H         -67.083641     -177.191299      -59.900078
 H         -67.341553     -177.740143      -61.485767
 H         -64.968399     -176.985489      -61.392796
 H         -64.580956     -177.513885      -59.682831
