20
 generated by VMD
 C         -23.343760      -54.661266      -14.908634
 N         -23.660517      -53.907375      -15.764141
 H         -20.247427      -54.757736      -15.552718
 H         -22.462435      -55.190163      -14.196245
 C         -19.601498      -55.266216      -14.765919
 C         -19.116716      -54.626122      -13.434920
 C         -18.987576      -56.561874      -15.270783
 C         -18.538378      -55.560192      -12.361114
 C         -18.773727      -57.428764      -14.055259
 C         -17.855980      -56.762478      -13.073773
 H         -20.029095      -54.099495      -13.023580
 H         -18.444918      -53.720612      -13.620238
 H         -19.556803      -57.145950      -15.934614
 H         -18.096500      -56.349163      -15.958019
 H         -19.397425      -56.021423      -11.871809
 H         -17.802071      -55.063713      -11.649131
 H         -18.361168      -58.381615      -14.406620
 H         -19.731796      -57.644032      -13.536783
 H         -17.684923      -57.527615      -12.348273
 H         -16.981033      -56.448441      -13.668259
