20
 generated by VMD
 C         -47.970860     -134.609589      -46.851833
 N         -47.970718     -134.153854      -47.969154
 H         -50.322956     -134.363220      -44.803947
 H         -47.735283     -134.857101      -45.843136
 C         -50.589222     -135.276230      -44.342621
 C         -50.860210     -136.522507      -45.074173
 C         -51.037601     -135.140686      -42.961529
 C         -50.932350     -137.769623      -44.231377
 C         -51.281998     -136.464951      -42.149593
 C         -51.757423     -137.594177      -42.936592
 H         -50.136703     -136.597321      -45.853340
 H         -51.925976     -136.456284      -45.575817
 H         -50.374481     -134.434494      -42.374241
 H         -51.949203     -134.561691      -43.221516
 H         -49.977421     -138.163147      -43.902252
 H         -51.484585     -138.492416      -44.823532
 H         -51.775280     -136.223572      -41.241585
 H         -50.295414     -136.798584      -41.805347
 H         -52.018673     -138.518265      -42.320309
 H         -52.805824     -137.412170      -43.097115
