20
 generated by VMD
 C         -44.161743     -121.732475      -35.925423
 N         -43.779285     -120.635307      -35.741577
 H         -44.994091     -122.612320      -39.545944
 H         -44.419243     -122.809013      -36.124107
 C         -44.751308     -121.472260      -39.658772
 C         -43.340309     -121.042076      -39.600559
 C         -45.892281     -120.628960      -39.012444
 C         -43.385174     -119.492729      -40.229465
 C         -45.766644     -119.151947      -39.457375
 C         -44.293041     -118.684235      -39.386551
 H         -42.629284     -121.657425      -40.257523
 H         -42.908165     -120.976059      -38.537685
 H         -46.897640     -121.030380      -39.207676
 H         -45.755047     -120.659744      -37.929047
 H         -43.692959     -119.447937      -41.274120
 H         -42.427387     -119.196289      -40.063568
 H         -46.408562     -118.576309      -38.863037
 H         -46.025318     -119.099037      -40.507645
 H         -44.180347     -117.693192      -39.787598
 H         -43.917835     -118.797768      -38.360352
