20
 generated by VMD
 C         -77.389847     -202.857025      -68.916428
 N         -77.511253     -203.792328      -68.221832
 H         -75.190781     -201.632034      -67.243752
 H         -77.120399     -201.883621      -69.249130
 C         -74.833069     -201.200729      -68.243027
 C         -75.215324     -199.791031      -68.554886
 C         -73.722092     -201.985535      -68.956009
 C         -74.431358     -199.237503      -69.695366
 C         -73.133675     -201.306259      -70.197433
 C         -74.043983     -200.198914      -70.736542
 H         -75.102898     -199.246033      -67.675903
 H         -76.318298     -199.720764      -68.673286
 H         -72.906654     -202.106430      -68.167320
 H         -74.163719     -202.955322      -69.210007
 H         -73.539680     -198.523010      -69.459572
 H         -75.067978     -198.576416      -70.324188
 H         -72.886078     -202.146149      -70.824554
 H         -72.114899     -201.003571      -70.013077
 H         -73.652733     -199.650635      -71.529114
 H         -75.058212     -200.442642      -71.208229
