20
 generated by VMD
 C         -62.953045     -173.521530      -55.582031
 N         -63.390358     -174.165756      -54.731522
 H         -61.677574     -171.664627      -58.715748
 H         -62.618729     -172.884094      -56.378071
 C         -62.516117     -171.018417      -58.785866
 C         -62.784454     -170.007767      -57.811710
 C         -63.749210     -171.757889      -59.070267
 C         -63.672127     -168.928986      -58.305649
 C         -64.901268     -170.822662      -59.631298
 C         -65.044327     -169.507675      -58.695877
 H         -61.843090     -169.497238      -57.514008
 H         -63.220924     -170.358765      -56.871563
 H         -63.686176     -172.520309      -59.783817
 H         -64.175888     -172.316269      -58.210709
 H         -63.253281     -168.512558      -59.218811
 H         -63.660229     -168.086090      -57.552635
 H         -65.799553     -171.396835      -59.852104
 H         -64.576370     -170.434250      -60.556175
 H         -65.571144     -168.708923      -59.321064
 H         -65.620987     -169.639694      -57.736511
