20
 generated by VMD
 C         -50.889744     -128.164337      -41.754475
 N         -51.943146     -128.543503      -41.873711
 H         -47.577274     -128.140518      -40.713135
 H         -49.847000     -127.989990      -41.898628
 C         -46.719231     -127.434105      -40.860214
 C         -45.547710     -127.904907      -40.089226
 C         -46.889874     -125.986603      -41.178646
 C         -44.298962     -127.470329      -40.885265
 C         -45.580204     -125.563339      -41.876934
 C         -44.349133     -125.985481      -41.086994
 H         -45.429329     -128.995148      -39.836918
 H         -45.566116     -127.462418      -39.086460
 H         -47.767372     -125.971916      -41.935246
 H         -46.873707     -125.340248      -40.365059
 H         -44.268993     -127.985123      -41.835964
 H         -43.448692     -127.522652      -40.173923
 H         -45.423840     -124.529999      -42.052551
 H         -45.525608     -126.144897      -42.791931
 H         -43.486584     -125.731857      -41.694767
 H         -44.298290     -125.371132      -40.139259
