20
 generated by VMD
 C         -65.301674     -177.095352      -56.212231
 N         -65.914330     -177.281677      -55.240047
 H         -64.540009     -175.019455      -59.368954
 H         -64.808586     -176.826797      -57.162373
 C         -64.295868     -173.889923      -59.359608
 C         -65.272667     -172.895721      -58.797581
 C         -63.563465     -173.387314      -60.655289
 C         -64.718170     -171.568237      -58.748119
 C         -63.193371     -171.888824      -60.701458
 C         -64.162003     -171.002960      -60.025764
 H         -65.536247     -173.291412      -57.712875
 H         -66.157829     -172.803680      -59.374260
 H         -62.760685     -174.064102      -60.952644
 H         -64.328598     -173.585831      -61.510159
 H         -63.883415     -171.497589      -58.116982
 H         -65.432976     -170.936005      -58.281399
 H         -63.097759     -171.521606      -61.730793
 H         -62.175102     -171.822205      -60.139324
 H         -63.719597     -170.063873      -59.771202
 H         -65.065628     -170.849121      -60.687553
