20
 generated by VMD
 C         -63.323357     -174.456482      -56.693012
 N         -62.528107     -175.146378      -56.203514
 H         -66.472008     -173.277222      -58.287205
 H         -64.056747     -173.785706      -57.123062
 C         -65.648666     -172.573502      -58.529400
 C         -65.765495     -171.071945      -58.339722
 C         -64.716515     -172.912674      -59.673065
 C         -64.326912     -170.418137      -58.236526
 C         -63.306698     -172.275635      -59.484669
 C         -63.297550     -170.877655      -59.171814
 H         -66.331161     -170.704636      -57.545441
 H         -66.259148     -170.570038      -59.318306
 H         -64.564285     -174.086151      -59.726475
 H         -65.168129     -172.700195      -60.685337
 H         -64.068108     -170.672989      -57.174911
 H         -64.504234     -169.330658      -58.264927
 H         -62.760559     -172.338745      -60.435024
 H         -62.862682     -172.914597      -58.696999
 H         -62.334370     -170.806046      -58.668633
 H         -63.163311     -170.299377      -60.160633
