20
 generated by VMD
 C         -12.001303      -27.741135       -1.514562
 N         -11.869428      -26.689516       -1.824419
 H         -10.366134      -25.856319       -4.458468
 H          -8.895165      -25.870325       -5.501659
 C          -9.305913      -26.064756       -4.503720
 C          -9.087504      -27.570896       -4.179399
 C          -8.656206      -25.247091       -3.383210
 C          -7.544101      -27.789202       -4.203136
 C          -7.180961      -25.551319       -3.276134
 C          -6.927209      -27.012407       -2.988014
 H          -9.446280      -28.250635       -5.020464
 H          -9.444246      -27.819479       -3.183677
 H          -8.768529      -24.219547       -3.738346
 H          -9.117457      -25.415310       -2.373999
 H          -7.067142      -27.464493       -5.114116
 H          -7.406490      -28.859045       -4.004431
 H          -6.912395      -24.925161       -2.463547
 H          -6.660187      -25.148613       -4.137351
 H          -5.832979      -27.156679       -2.941183
 H          -7.323473      -27.376865       -2.042685
