20
 generated by VMD
 C         -79.167725     -207.232895      -75.680542
 N         -80.227127     -207.043701      -75.147163
 H         -77.311188     -208.909119      -73.280205
 H         -78.270393     -207.587967      -76.139023
 C         -77.289200     -208.828079      -72.229385
 C         -76.109467     -208.176666      -71.602699
 C         -78.002754     -209.940231      -71.556740
 C         -76.228073     -208.058624      -70.042671
 C         -78.211983     -209.533142      -70.100380
 C         -76.973091     -209.198303      -69.420364
 H         -75.918648     -207.223358      -72.106049
 H         -75.204651     -208.754898      -71.675484
 H         -78.998932     -210.055252      -72.078125
 H         -77.512901     -210.917770      -71.522964
 H         -76.774773     -207.098511      -69.861374
 H         -75.212692     -207.947357      -69.572144
 H         -78.653023     -210.411392      -69.483398
 H         -78.903244     -208.710754      -70.081261
 H         -76.776596     -209.042038      -68.403343
 H         -76.370628     -210.106094      -69.627960
