20
 generated by VMD
 C         -72.644943     -199.106262      -65.588295
 N         -72.292648     -199.835480      -64.756264
 H         -71.165367     -196.171234      -67.324837
 H         -73.173660     -198.644867      -66.383308
 C         -72.103264     -195.789185      -67.679611
 C         -72.856995     -194.544861      -67.225578
 C         -72.628166     -196.322220      -69.038445
 C         -74.194519     -194.328522      -67.983910
 C         -74.024101     -196.711746      -68.858170
 C         -74.842110     -195.765305      -68.027061
 H         -72.315056     -193.574280      -67.239441
 H         -72.961220     -194.674789      -66.042496
 H         -72.419922     -195.706314      -69.871819
 H         -72.111557     -197.198685      -69.281487
 H         -74.119164     -193.742905      -68.896019
 H         -74.759903     -193.758316      -67.242462
 H         -74.097801     -197.663177      -68.331322
 H         -74.495239     -196.907333      -69.833923
 H         -75.819473     -195.638107      -68.354652
 H         -75.170868     -196.124557      -67.039841
