20
 generated by VMD
 C         -31.113707      -79.605804      -26.165585
 N         -30.849005      -78.496910      -26.337454
 H         -28.692173      -81.298981      -25.408709
 H         -31.245203      -80.686752      -26.323629
 C         -28.892590      -81.746239      -24.414637
 C         -27.871094      -81.596733      -23.437134
 C         -29.921614      -82.755264      -24.243410
 C         -28.537151      -81.304787      -22.079092
 C         -30.648075      -82.401688      -22.914433
 C         -29.521688      -82.359619      -21.772984
 H         -27.214413      -80.739685      -23.555187
 H         -27.352266      -82.554016      -23.445370
 H         -30.557209      -82.569061      -25.096117
 H         -29.634754      -83.861214      -24.134724
 H         -29.020668      -80.350044      -22.080065
 H         -27.805756      -81.285927      -21.184540
 H         -31.354727      -83.205856      -22.541601
 H         -31.192841      -81.433861      -22.967581
 H         -29.878075      -82.083023      -20.793228
 H         -29.044243      -83.314758      -21.755245
