20
 generated by VMD
 C         -46.703510     -124.658852      -37.278458
 N         -46.931618     -124.786591      -36.167778
 H         -44.535378     -121.934814      -37.785309
 H         -46.686966     -124.687271      -38.345249
 C         -44.648537     -121.869194      -38.849163
 C         -43.406620     -122.151588      -39.670044
 C         -45.869423     -121.376663      -39.441986
 C         -43.581791     -122.344749      -41.172150
 C         -46.074150     -121.524094      -41.044838
 C         -44.730991     -121.358406      -41.738827
 H         -42.859730     -123.083488      -39.395771
 H         -42.621796     -121.445129      -39.326088
 H         -46.695923     -121.916039      -38.909588
 H         -45.877567     -120.358757      -39.141533
 H         -43.863235     -123.364861      -41.447495
 H         -42.686905     -121.993408      -41.507069
 H         -46.921997     -120.888855      -41.308937
 H         -46.513000     -122.627663      -41.220856
 H         -44.884739     -121.580429      -42.776398
 H         -44.395958     -120.305351      -41.589504
