20
 generated by VMD
 C         -21.246994      -65.138779      -17.138195
 N         -20.626482      -65.624924      -16.319880
 H         -24.639294      -63.458420      -17.854635
 H         -22.110826      -65.045410      -17.926298
 C         -24.603634      -64.525566      -18.251209
 C         -24.472614      -65.027954      -19.632044
 C         -24.923836      -65.537354      -17.082558
 C         -24.309473      -66.515564      -19.771433
 C         -24.868410      -67.030815      -17.339397
 C         -25.356123      -67.355797      -18.863155
 H         -23.675486      -64.377266      -20.000206
 H         -25.351803      -64.814140      -20.202265
 H         -24.416685      -65.232368      -16.258543
 H         -25.945297      -65.335869      -16.762972
 H         -23.243132      -66.815414      -19.395992
 H         -24.380028      -66.888039      -20.839376
 H         -25.485504      -67.571663      -16.529707
 H         -23.816622      -67.370850      -17.149052
 H         -25.058895      -68.432434      -19.086107
 H         -26.374201      -67.146935      -19.187052
