20
 generated by VMD
 C         -42.020794     -101.463570      -33.089348
 N         -41.187340     -101.667191      -33.885448
 H         -38.863598     -103.423851      -32.455627
 H         -42.804913     -101.611946      -32.289742
 C         -37.809250     -103.420586      -32.222935
 C         -36.658253     -103.508904      -33.045086
 C         -37.706745     -103.808655      -30.710852
 C         -35.606842     -102.535828      -32.399059
 C         -36.483818     -103.177452      -30.055441
 C         -35.235424     -103.113258      -31.029539
 H         -36.827724     -103.022476      -33.978161
 H         -36.242710     -104.515472      -33.207394
 H         -38.590813     -103.498695      -30.040672
 H         -37.488998     -104.855064      -30.556421
 H         -36.059216     -101.580284      -32.229469
 H         -34.716908     -102.422424      -33.029251
 H         -36.243366     -103.756119      -29.124235
 H         -36.723606     -102.153824      -29.671309
 H         -34.468685     -102.582954      -30.445969
 H         -34.873940     -104.106277      -31.237202
