20
 generated by VMD
 C         -38.329014     -112.737152      -35.898201
 N         -37.770496     -112.124962      -36.698757
 H         -40.887234     -114.561188      -34.910763
 H         -39.043167     -113.045151      -35.205994
 C         -41.859459     -114.462952      -35.437588
 C         -41.979996     -114.566521      -36.987896
 C         -42.971996     -113.672844      -34.661922
 C         -43.371468     -114.816360      -37.485519
 C         -44.408485     -113.880234      -35.277241
 C         -44.459133     -113.850174      -36.791389
 H         -41.289764     -115.384323      -37.132820
 H         -41.445091     -113.614250      -37.303028
 H         -42.981159     -114.145569      -33.674278
 H         -42.891964     -112.603287      -34.403210
 H         -43.765644     -115.856148      -37.345650
 H         -43.378716     -114.580589      -38.574009
 H         -45.183990     -113.262001      -34.849113
 H         -44.779716     -114.870430      -35.081203
 H         -45.482117     -114.245796      -37.158810
 H         -44.266106     -112.831062      -37.094196
