20
 generated by VMD
 C         -30.696066      -79.729752      -26.059196
 N         -30.877813      -78.589485      -26.210957
 H         -28.526350      -82.010849      -25.643627
 H         -30.570730      -80.828506      -25.823826
 C         -28.871883      -82.079781      -24.668449
 C         -27.997471      -81.573471      -23.531771
 C         -30.075029      -82.950241      -24.296461
 C         -28.731045      -81.268661      -22.135714
 C         -30.688660      -82.574150      -23.001400
 C         -29.749996      -82.439995      -21.829967
 H         -27.472750      -80.624626      -23.811850
 H         -27.159235      -82.226051      -23.413813
 H         -30.723669      -82.980415      -25.189753
 H         -29.790119      -84.062271      -24.145666
 H         -29.061869      -80.293739      -22.311872
 H         -28.072479      -81.233887      -21.216883
 H         -31.573059      -83.257027      -22.694004
 H         -31.138033      -81.586647      -23.235418
 H         -30.347752      -82.204323      -20.901348
 H         -29.343136      -83.438515      -21.557198
