20
 generated by VMD
 C         -12.080050      -27.762211       -1.501103
 N         -11.847653      -26.710560       -1.841534
 H         -10.406137      -25.903687       -4.484575
 H          -8.959809      -25.802954       -5.527917
 C          -9.290866      -26.076166       -4.494682
 C          -9.046569      -27.568691       -4.219503
 C          -8.663482      -25.247440       -3.405856
 C          -7.531288      -27.785280       -4.173023
 C          -7.189887      -25.553938       -3.289842
 C          -6.947337      -27.079082       -2.988361
 H          -9.393181      -28.241306       -4.930474
 H          -9.537042      -27.828814       -3.242115
 H          -8.838766      -24.205355       -3.670475
 H          -9.195582      -25.333565       -2.440837
 H          -7.167495      -27.460642       -5.176531
 H          -7.402016      -28.883244       -4.042652
 H          -6.804798      -25.011240       -2.361990
 H          -6.585085      -25.312412       -4.194445
 H          -5.882822      -27.244789       -2.974967
 H          -7.446553      -27.358536       -2.033954
