20
 generated by VMD
 C         -28.234344      -84.657166      -26.159393
 N         -28.231831      -84.066582      -27.137028
 H         -31.333591      -84.492188      -26.171635
 H         -28.361776      -85.119659      -25.141380
 C         -31.544497      -85.444946      -25.819324
 C         -31.555893      -85.780487      -24.332983
 C         -31.901438      -86.577148      -26.727879
 C         -32.931595      -86.174599      -23.939304
 C         -33.242035      -87.219543      -26.318287
 C         -33.410793      -87.368797      -24.814089
 H         -31.179628      -84.946159      -23.828207
 H         -30.766823      -86.555023      -24.115139
 H         -31.955206      -86.270729      -27.789646
 H         -31.147505      -87.316971      -26.602427
 H         -33.658630      -85.312218      -24.066927
 H         -33.158691      -86.396645      -22.894518
 H         -33.426144      -88.168739      -26.885908
 H         -33.874908      -86.455719      -26.833160
 H         -34.448204      -87.509094      -24.397987
 H         -32.799065      -88.319008      -24.522614
