20
 generated by VMD
 C         -65.125954     -175.874115      -55.833569
 N         -64.896622     -177.033386      -55.859188
 H         -64.449127     -174.639862      -58.600941
 H         -65.449463     -174.834763      -55.751080
 C         -64.563507     -173.652771      -59.177258
 C         -65.326180     -172.504868      -58.576878
 C         -63.787231     -173.370056      -60.534557
 C         -64.553764     -171.188416      -58.568794
 C         -63.174717     -171.897858      -60.431252
 C         -63.998913     -170.806732      -59.824371
 H         -65.613258     -172.639114      -57.605934
 H         -66.252510     -172.221771      -59.151440
 H         -63.125797     -174.180573      -60.811222
 H         -64.453835     -173.527435      -61.315720
 H         -63.654526     -171.446869      -57.890007
 H         -65.058304     -170.318985      -58.056568
 H         -62.886456     -171.452621      -61.370098
 H         -62.194675     -172.015030      -59.921215
 H         -63.460239     -169.878769      -59.717567
 H         -64.773758     -170.534363      -60.533806
