20
 generated by VMD
 C         -68.266747     -185.746445      -67.025314
 N         -68.073410     -184.718948      -67.512978
 H         -69.154694     -188.247894      -64.911407
 H         -68.340599     -186.775604      -66.607201
 C         -69.432571     -187.851990      -63.887245
 C         -69.068047     -186.515045      -63.519356
 C         -70.484894     -188.681519      -63.116070
 C         -69.428268     -186.143478      -62.051186
 C         -70.806190     -188.198425      -61.647293
 C         -70.748268     -186.713318      -61.505505
 H         -69.682434     -185.926834      -64.163834
 H         -67.981041     -186.408478      -63.631443
 H         -71.425468     -188.733917      -63.642273
 H         -69.986671     -189.568420      -62.906818
 H         -69.325874     -185.059784      -62.071217
 H         -68.741829     -186.437714      -61.269295
 H         -70.138184     -188.665710      -60.971020
 H         -71.700005     -188.703369      -61.316856
 H         -71.588257     -186.236786      -62.164009
 H         -70.951515     -186.134628      -60.542877
