20
 generated by VMD
 C         -79.952194     -205.413483      -71.387581
 N         -80.157249     -206.579346      -71.500862
 H         -77.269089     -202.952072      -70.548630
 H         -79.870178     -204.337738      -71.142181
 C         -76.306961     -203.373901      -70.247536
 C         -75.146706     -202.402649      -70.420425
 C         -76.005592     -204.790375      -70.165199
 C         -73.775650     -203.093277      -70.568405
 C         -74.791397     -205.010483      -69.203430
 C         -73.536781     -204.131393      -69.443230
 H         -75.084053     -201.680099      -69.553398
 H         -75.241478     -201.734619      -71.248329
 H         -76.851936     -205.233719      -69.752037
 H         -75.935432     -205.267151      -71.090210
 H         -73.029930     -202.291351      -70.826881
 H         -74.029930     -203.672653      -71.497993
 H         -74.465279     -206.137375      -69.269806
 H         -75.089478     -204.924683      -68.169060
 H         -73.101593     -203.579422      -68.507492
 H         -72.745522     -204.781799      -69.919373
