20
 generated by VMD
 C         -22.411963      -54.900280      -15.836187
 N         -23.506624      -55.330994      -16.118807
 H         -19.197233      -54.684155      -15.366293
 H         -21.533312      -54.577839      -15.447661
 C         -19.506016      -55.554352      -14.792166
 C         -19.322838      -55.403881      -13.333499
 C         -18.982990      -56.861706      -15.467084
 C         -19.665087      -56.649643      -12.540069
 C         -19.571457      -58.047272      -14.658688
 C         -19.122530      -57.956760      -13.166757
 H         -19.880865      -54.547668      -12.972458
 H         -18.290226      -55.025269      -13.146453
 H         -19.126635      -56.768234      -16.507685
 H         -17.832739      -56.953632      -15.389003
 H         -20.751005      -56.732010      -12.476479
 H         -19.226551      -56.467819      -11.543643
 H         -19.338337      -59.066875      -15.038404
 H         -20.668907      -58.025127      -14.704715
 H         -19.443249      -58.842316      -12.614238
 H         -17.991999      -57.935749      -13.207640
