20
 generated by VMD
 C         -57.448006     -162.686646      -56.310268
 N         -57.147461     -162.236038      -57.297421
 H         -59.691299     -165.053299      -55.114277
 H         -57.666786     -163.120789      -55.339672
 C         -60.607307     -164.497498      -54.882076
 C         -60.894932     -164.425568      -53.363983
 C         -61.744274     -164.663467      -55.823959
 C         -62.287243     -163.760071      -52.949600
 C         -62.808369     -163.622971      -55.575695
 C         -63.326801     -163.774078      -54.139820
 H         -60.187691     -163.801147      -52.912663
 H         -60.710392     -165.348022      -52.912685
 H         -61.416096     -164.769104      -56.896488
 H         -62.164150     -165.684128      -55.520767
 H         -62.198849     -162.721863      -52.584911
 H         -62.714134     -164.318634      -52.150547
 H         -63.521313     -163.609299      -56.408073
 H         -62.350166     -162.554840      -55.709187
 H         -64.047592     -162.962509      -53.902843
 H         -63.729496     -164.778809      -54.127644
