20
 generated by VMD
 C         -40.916985     -103.559174      -35.679031
 N         -41.411346     -104.609329      -35.589382
 H         -38.691177     -104.101219      -33.888924
 H         -40.195114     -102.785675      -35.698307
 C         -38.504963     -104.966728      -33.206856
 C         -37.203793     -104.873154      -32.646935
 C         -39.430466     -106.172905      -32.950291
 C         -36.855030     -105.712563      -31.366657
 C         -38.951248     -106.962914      -31.589157
 C         -37.424320     -107.111839      -31.430021
 H         -36.857849     -103.888695      -32.528660
 H         -36.602882     -105.303146      -33.429359
 H         -40.477283     -105.838974      -32.716515
 H         -39.481354     -106.886215      -33.791630
 H         -37.332333     -105.041504      -30.612585
 H         -35.735996     -105.848030      -31.301628
 H         -39.394104     -107.907310      -31.695187
 H         -39.413158     -106.412277      -30.719973
 H         -37.081696     -107.614693      -30.527033
 H         -37.015900     -107.629822      -32.332035
