20
 generated by VMD
 C         -50.125675     -144.927490      -44.531769
 N         -49.371788     -144.000061      -44.655499
 H         -52.524109     -142.352402      -45.708534
 H         -50.859787     -145.634415      -44.220963
 C         -53.069221     -142.311218      -46.630280
 C         -52.408714     -142.380859      -47.946289
 C         -54.569683     -141.738480      -46.654026
 C         -53.400040     -142.679626      -49.162956
 C         -55.293350     -142.115082      -47.827991
 C         -54.607311     -141.802536      -49.129871
 H         -51.655956     -143.142090      -47.907902
 H         -51.794186     -141.598923      -48.226620
 H         -55.082775     -141.984131      -45.740887
 H         -54.465080     -140.756577      -46.609863
 H         -53.825417     -143.664230      -49.216640
 H         -52.740162     -142.592499      -50.019627
 H         -56.202991     -141.516968      -47.839062
 H         -55.468884     -143.158310      -47.795277
 H         -55.238159     -142.078735      -49.931152
 H         -54.437614     -140.798172      -49.270145
