20
 generated by VMD
 C         -40.213421     -107.174553      -37.832554
 N         -39.206047     -106.604919      -37.845787
 H         -38.931389     -108.153885      -34.549904
 H         -41.089558     -107.673790      -37.474773
 C         -39.507973     -108.931206      -34.018532
 C         -38.805405     -110.172630      -33.430508
 C         -41.024418     -108.927818      -34.271023
 C         -39.676052     -110.857925      -32.337227
 C         -41.813091     -109.592598      -33.116802
 C         -41.202320     -110.892128      -32.731823
 H         -37.923916     -109.919243      -32.853123
 H         -38.564838     -110.926033      -34.145367
 H         -41.402451     -107.863777      -34.318115
 H         -41.258789     -109.429596      -35.222900
 H         -39.634888     -110.160561      -31.371519
 H         -39.229443     -111.855042      -32.036457
 H         -42.822311     -109.682297      -33.379871
 H         -41.766800     -108.954330      -32.253250
 H         -41.758354     -111.309395      -31.975210
 H         -41.329685     -111.500969      -33.651794
