20
 generated by VMD
 C         -66.813416     -191.068619      -66.310600
 N         -67.766556     -190.548874      -66.736504
 H         -70.630211     -189.984680      -66.679840
 H         -65.799919     -191.473206      -66.128464
 C         -71.161285     -190.144577      -65.737030
 C         -72.214005     -191.141846      -65.507072
 C         -70.680969     -189.473007      -64.485802
 C         -73.295364     -190.749039      -64.523087
 C         -71.881165     -188.803680      -63.865822
 C         -72.713348     -189.915207      -63.274769
 H         -71.695869     -191.951767      -65.150864
 H         -72.691589     -191.354706      -66.463844
 H         -70.289665     -190.237457      -63.822575
 H         -69.834023     -188.829147      -64.620926
 H         -73.852913     -191.641083      -64.124870
 H         -74.163422     -190.237930      -65.040916
 H         -72.313637     -188.066483      -64.503990
 H         -71.448914     -188.217819      -63.070675
 H         -72.052582     -190.437912      -62.571465
 H         -73.622261     -189.638168      -62.701805
