20
 generated by VMD
 C          -1.679725      -17.413534        2.037072
 N          -1.599993      -17.210464        3.131077
 H          -5.340770      -17.289219        0.949782
 H          -5.029275      -18.401154       -0.279817
 C          -5.818250      -17.807161        0.113581
 C          -6.182002      -16.823889       -1.037541
 C          -7.025075      -18.635176        0.629795
 C          -7.014952      -17.561649       -2.096746
 C          -7.639073      -19.452284       -0.573157
 C          -8.134649      -18.518124       -1.590217
 H          -5.268893      -16.500320       -1.522259
 H          -6.585849      -15.922456       -0.521532
 H          -6.737636      -19.490273        1.361843
 H          -7.811642      -18.097471        1.222627
 H          -6.387334      -18.110430       -2.751046
 H          -7.446263      -16.868954       -2.839752
 H          -8.448863      -20.113043       -0.229048
 H          -6.929901      -20.167160       -1.045786
 H          -8.622371      -19.069834       -2.415657
 H          -8.917009      -17.883717       -1.171779
