20
 generated by VMD
 C         -19.237396      -61.430843      -16.102234
 N         -19.980518      -60.834736      -16.715021
 H         -21.891983      -63.299389      -18.271072
 H         -18.327217      -61.935535      -15.623905
 C         -22.880001      -63.442432      -17.820129
 C         -24.050499      -63.483723      -18.749968
 C         -23.073885      -63.461037      -16.335083
 C         -24.765953      -64.798843      -18.423624
 C         -23.839945      -64.710770      -15.980995
 C         -25.126902      -64.803947      -16.906927
 H         -23.601805      -63.526535      -19.794088
 H         -24.654030      -62.549923      -18.615955
 H         -22.114296      -63.463917      -15.684163
 H         -23.629976      -62.562183      -15.968119
 H         -23.991890      -65.524208      -18.704107
 H         -25.678144      -64.912155      -19.160534
 H         -24.123188      -64.664230      -14.932441
 H         -23.279976      -65.608246      -16.160065
 H         -25.402861      -65.814682      -16.596926
 H         -25.829580      -63.967247      -16.682932
