20
 generated by VMD
 C         -41.571838     -119.405579      -34.494625
 N         -41.265076     -120.006645      -35.434929
 H         -43.148640     -118.317978      -36.804436
 H         -41.864426     -119.011940      -33.491390
 C         -43.783390     -118.271103      -37.635490
 C         -42.975491     -118.145248      -38.851501
 C         -45.152042     -117.512787      -37.655907
 C         -43.705151     -118.636490      -40.090607
 C         -45.989689     -117.944450      -38.926666
 C         -45.044708     -117.877602      -40.080795
 H         -41.984558     -118.629379      -38.812843
 H         -42.737316     -117.122391      -39.150143
 H         -45.657337     -117.808388      -36.702862
 H         -45.069935     -116.467072      -37.685421
 H         -43.990616     -119.667747      -40.075531
 H         -43.161491     -118.423691      -41.029045
 H         -46.664429     -117.127342      -38.969627
 H         -46.515106     -118.914810      -38.792488
 H         -45.680222     -118.365601      -40.918831
 H         -44.844372     -116.800163      -40.301788
