20
 generated by VMD
 C         -10.818047      -33.287800       -8.615465
 N         -11.536900      -33.413162       -9.427077
 H         -12.848237      -33.665565       -6.045694
 H         -12.848275      -34.655788       -4.555970
 C         -12.759397      -34.681385       -5.616002
 C         -11.412419      -35.352886       -5.967637
 C         -13.910064      -35.502247       -6.302567
 C         -11.477285      -36.801086       -5.423244
 C         -13.940769      -36.898384       -5.772301
 C         -12.696610      -37.732769       -5.912062
 H         -10.568409      -34.844284       -5.545525
 H         -11.327596      -35.372402       -7.050404
 H         -14.815384      -35.007153       -5.967287
 H         -13.760380      -35.347904       -7.387083
 H         -11.435654      -36.848526       -4.332669
 H         -10.558188      -37.337029       -5.740371
 H         -14.763738      -37.462437       -6.335279
 H         -14.258439      -36.896282       -4.769144
 H         -12.780310      -38.628071       -5.341008
 H         -12.477383      -37.998672       -6.951909
