20
 generated by VMD
 C         -43.087933     -120.769623      -35.372292
 N         -42.659760     -120.953423      -34.301807
 H         -44.316555     -121.358643      -38.848061
 H         -43.309448     -120.785797      -36.410610
 C         -44.140476     -120.248428      -38.704304
 C         -43.036976     -119.628792      -39.534134
 C         -45.210152     -119.304314      -38.086891
 C         -43.789299     -118.883278      -40.770725
 C         -45.935879     -118.773758      -39.318031
 C         -45.055050     -118.045616      -40.342148
 H         -42.445541     -120.406990      -40.112583
 H         -42.301472     -118.959190      -38.910076
 H         -45.877617     -119.931992      -37.413490
 H         -44.694698     -118.497681      -37.446209
 H         -43.891533     -119.713593      -41.440380
 H         -43.114090     -118.182190      -41.160347
 H         -46.658169     -117.965454      -38.964188
 H         -46.399113     -119.633980      -39.807972
 H         -45.710583     -117.945816      -41.219101
 H         -44.588638     -117.079033      -39.960247
