20
 generated by VMD
 C         -66.062737     -177.859283      -56.880531
 N         -66.953491     -177.146378      -57.153976
 H         -64.082390     -175.455200      -58.446003
 H         -65.226677     -178.546143      -56.692150
 C         -64.409775     -174.858627      -59.221581
 C         -65.584068     -173.937210      -59.187042
 C         -63.416702     -174.548019      -60.317055
 C         -65.222099     -172.519455      -59.068947
 C         -63.103462     -172.973984      -60.418034
 C         -64.352242     -172.028152      -60.204704
 H         -66.268799     -174.308350      -58.394382
 H         -66.244553     -174.000122      -60.070728
 H         -62.600800     -175.204941      -60.210934
 H         -63.780857     -174.853439      -61.309498
 H         -64.599258     -172.283813      -58.179691
 H         -66.157059     -171.931503      -58.946808
 H         -62.691845     -172.678680      -61.390430
 H         -62.235020     -172.755341      -59.720581
 H         -64.205170     -170.990570      -59.785908
 H         -64.950905     -171.865631      -61.091629
