20
 generated by VMD
 C         -70.121262     -197.284515      -66.132713
 N         -69.625336     -196.318207      -65.752396
 H         -71.830498     -194.173843      -64.825630
 H         -70.798180     -198.064377      -66.496193
 C         -72.603424     -194.038193      -65.614807
 C         -72.748360     -192.586075      -66.028908
 C         -73.293747     -195.142578      -66.294327
 C         -73.597679     -192.398560      -67.264908
 C         -73.918152     -194.856003      -67.639557
 C         -73.515419     -193.504181      -68.291809
 H         -71.688156     -192.071716      -66.167343
 H         -73.040085     -191.859680      -65.251846
 H         -72.359596     -195.755814      -66.486366
 H         -73.914703     -195.539642      -65.486603
 H         -73.429977     -191.398026      -67.737083
 H         -74.655304     -192.258469      -66.935257
 H         -74.997429     -194.750946      -67.447357
 H         -73.791374     -195.717010      -68.278992
 H         -72.585236     -193.517456      -68.719353
 H         -74.210617     -193.307266      -69.220207
