20
 generated by VMD
 C         -21.646069      -66.607430      -16.758121
 N         -20.933994      -66.925980      -15.916509
 H         -23.969732      -64.899231      -17.935961
 H         -22.176594      -66.553955      -17.793478
 C         -24.655094      -65.422951      -18.559299
 C         -24.021877      -65.955734      -19.890842
 C         -25.919868      -65.972633      -18.012354
 C         -24.345755      -67.414261      -20.198929
 C         -25.915905      -67.494926      -18.114241
 C         -25.662901      -68.034042      -19.521000
 H         -22.924171      -65.866516      -19.804232
 H         -24.343042      -65.393730      -20.760969
 H         -25.905176      -65.584038      -16.941280
 H         -26.928719      -65.601021      -18.394272
 H         -23.533487      -67.942078      -19.758711
 H         -24.285278      -67.479980      -21.261093
 H         -26.764711      -68.040710      -17.788092
 H         -25.131689      -67.793701      -17.415262
 H         -25.736380      -69.151039      -19.708395
 H         -26.470825      -67.586227      -20.112940
