20
 generated by VMD
 C         -22.561609      -55.551899      -16.393444
 N         -23.103868      -54.584236      -16.387951
 H         -19.639158      -55.534962      -15.532342
 H         -21.761246      -56.267574      -16.681772
 C         -19.853018      -56.487141      -15.049324
 C         -20.542408      -56.658081      -13.723496
 C         -18.642061      -57.518398      -15.207939
 C         -21.008915      -58.131538      -13.456470
 C         -18.934647      -58.941528      -14.644246
 C         -19.736887      -58.978844      -13.367794
 H         -21.429724      -56.092842      -13.740555
 H         -19.939190      -56.253494      -12.943182
 H         -18.479975      -57.610325      -16.244259
 H         -17.736855      -57.137234      -14.669649
 H         -21.616491      -58.373901      -14.297187
 H         -21.643375      -58.105850      -12.543717
 H         -18.115835      -59.636074      -14.606514
 H         -19.610382      -59.409889      -15.421613
 H         -19.888882      -60.041771      -13.222412
 H         -19.079969      -58.566666      -12.532119
