20
 generated by VMD
 C         -58.160873     -168.383316      -55.013248
 N         -56.992294     -168.581268      -54.907772
 H         -61.372295     -167.427948      -55.598511
 H         -59.214912     -168.162491      -55.127060
 C         -62.276089     -167.159607      -56.077053
 C         -62.698727     -167.687881      -57.468571
 C         -63.041771     -165.875961      -55.587357
 C         -64.160088     -167.502502      -57.857101
 C         -64.517525     -165.833359      -55.944595
 C         -64.660332     -166.117645      -57.456875
 H         -62.403152     -168.735413      -57.665962
 H         -62.092072     -167.080658      -58.150257
 H         -62.819431     -165.769196      -54.512932
 H         -62.437859     -165.053787      -56.136501
 H         -64.722763     -168.250061      -57.256466
 H         -64.337929     -167.761398      -58.933323
 H         -65.076866     -164.856216      -55.615833
 H         -65.078232     -166.483475      -55.365513
 H         -65.713348     -166.100586      -57.660336
 H         -64.140556     -165.445694      -58.125988
