20
 generated by VMD
 C         -72.000038     -199.177872      -64.893929
 N         -70.859001     -199.003738      -65.043694
 H         -72.061096     -196.539749      -66.528641
 H         -73.021820     -199.411057      -64.542976
 C         -72.720863     -195.930634      -67.145973
 C         -72.903999     -194.510849      -66.896072
 C         -73.052589     -196.397171      -68.534836
 C         -73.660812     -193.880188      -67.971680
 C         -74.449905     -196.010681      -68.975044
 C         -74.872322     -194.583191      -68.544281
 H         -71.952538     -193.938385      -66.761711
 H         -73.348534     -194.387344      -65.985161
 H         -72.291534     -196.240829      -69.383614
 H         -72.964226     -197.534592      -68.428360
 H         -72.911179     -193.724243      -68.718445
 H         -74.071388     -192.911255      -67.613914
 H         -75.200874     -196.784882      -68.706474
 H         -74.400467     -196.164185      -70.036331
 H         -75.281479     -193.963943      -69.428589
 H         -75.603157     -194.688843      -67.820557
