20
 generated by VMD
 C         -40.954670     -104.177834      -36.466866
 N         -41.727764     -105.019211      -36.337456
 H         -38.674152     -104.560875      -33.631878
 H         -40.059380     -103.623337      -36.728905
 C         -38.540359     -105.577095      -33.093452
 C         -37.248604     -105.740059      -32.290272
 C         -39.397217     -106.789619      -33.453106
 C         -37.300694     -106.717865      -31.196690
 C         -39.550793     -107.712761      -32.156467
 C         -38.123096     -107.929878      -31.659626
 H         -36.964897     -104.728165      -31.946535
 H         -36.474678     -105.965309      -33.107010
 H         -40.337555     -106.403183      -33.825184
 H         -39.061264     -107.444435      -34.319736
 H         -37.848011     -106.228035      -30.367374
 H         -36.451954     -107.113068      -30.674555
 H         -39.912899     -108.649246      -32.326412
 H         -40.117245     -107.244698      -31.344440
 H         -38.249580     -108.526489      -30.673000
 H         -37.613781     -108.584366      -32.299469
