20
 generated by VMD
 C         -56.029869     -149.233398      -45.866619
 N         -55.855076     -150.216873      -45.236294
 H         -54.082260     -148.102219      -47.837887
 H         -56.357750     -148.381317      -46.433754
 C         -54.002216     -147.396179      -48.666729
 C         -53.046200     -147.555588      -49.856812
 C         -54.904140     -146.155487      -48.511826
 C         -53.599518     -146.861313      -51.202320
 C         -55.221180     -145.433014      -49.821552
 C         -54.174744     -145.458542      -51.010254
 H         -52.663364     -148.677505      -49.984680
 H         -52.030117     -147.106674      -49.588799
 H         -55.859360     -146.427429      -47.939430
 H         -54.322655     -145.362091      -47.891369
 H         -54.305546     -147.610886      -51.636436
 H         -52.722515     -146.759094      -51.960915
 H         -55.431110     -144.334930      -49.582272
 H         -56.068737     -145.964157      -50.217121
 H         -54.567719     -145.026169      -51.943489
 H         -53.392403     -144.724823      -50.709305
