20
 generated by VMD
 C         -49.504265     -133.024429      -46.873432
 N         -48.440964     -132.928452      -47.472076
 H         -48.224232     -134.517746      -43.849163
 H         -50.367447     -133.369812      -46.234726
 C         -49.279659     -134.811905      -43.920094
 C         -49.531479     -136.274811      -44.335098
 C         -50.266605     -134.044144      -43.192028
 C         -50.159626     -137.040314      -43.153271
 C         -50.820419     -134.849762      -41.989136
 C         -51.295006     -136.227554      -42.441978
 H         -48.665657     -136.796982      -44.733437
 H         -50.358593     -136.302673      -45.145267
 H         -49.918583     -133.068924      -42.838245
 H         -51.077152     -133.864304      -43.892963
 H         -49.360134     -137.062241      -42.437336
 H         -50.417660     -138.078308      -43.555588
 H         -51.645653     -134.186157      -41.636055
 H         -50.050014     -134.867142      -41.227894
 H         -51.780247     -136.925476      -41.706177
 H         -52.088676     -136.085617      -43.157101
