20
 generated by VMD
 C          -2.181371       -8.623348       -0.881324
 N          -1.748512       -8.209164        0.048379
 H          -3.161530       -9.600878        2.823708
 H          -1.805494      -10.695955        3.314030
 C          -2.909506      -10.575796        3.202338
 C          -3.553833      -11.486617        2.169808
 C          -3.539311      -10.805971        4.568263
 C          -3.388521      -12.905446        2.565355
 C          -3.467931      -12.234607        5.021534
 C          -3.911299      -13.244223        3.897721
 H          -3.039887      -11.325705        1.220393
 H          -4.617021      -11.276813        2.039640
 H          -3.158262      -10.096743        5.384351
 H          -4.605617      -10.489393        4.550862
 H          -2.286601      -13.140225        2.553142
 H          -3.850936      -13.545484        1.793019
 H          -4.131388      -12.495639        5.873498
 H          -2.461272      -12.537323        5.357512
 H          -3.694205      -14.300360        4.116980
 H          -4.992213      -13.210603        3.953584
