20
 generated by VMD
 C         -12.805118      -27.494635       -1.843812
 N         -11.711031      -27.228676       -1.885974
 H         -10.372776      -25.974459       -4.551889
 H          -8.836140      -25.899166       -5.433634
 C          -9.268513      -26.263800       -4.505352
 C          -9.031975      -27.765600       -4.408392
 C          -8.706392      -25.477770       -3.355449
 C          -7.547681      -28.053282       -4.230239
 C          -7.234551      -25.771070       -3.244472
 C          -7.014122      -27.274094       -3.078743
 H          -9.457151      -28.312864       -5.268927
 H          -9.663763      -28.177021       -3.580362
 H          -8.897262      -24.408459       -3.494809
 H          -9.183019      -25.805553       -2.437321
 H          -7.048130      -27.782919       -5.159132
 H          -7.341440      -29.093922       -4.245029
 H          -6.671337      -25.226841       -2.477980
 H          -6.649943      -25.485817       -4.112929
 H          -5.968188      -27.520708       -2.834013
 H          -7.546847      -27.551229       -2.133263
