20
 generated by VMD
 C         -66.711273     -190.448624      -66.556488
 N         -67.787338     -190.269135      -66.255844
 H         -70.636230     -190.825073      -66.561554
 H         -65.713211     -190.429840      -66.983391
 C         -71.231300     -190.435638      -65.736900
 C         -72.359467     -191.229126      -65.120964
 C         -70.623085     -189.375809      -64.792847
 C         -73.248909     -190.303986      -64.421799
 C         -71.548149     -188.715942      -63.775131
 C         -72.505814     -189.700394      -63.225861
 H         -71.895775     -192.047775      -64.474251
 H         -72.899086     -191.806595      -65.968346
 H         -69.822136     -189.950027      -64.227654
 H         -69.968719     -188.517838      -65.354218
 H         -74.167320     -190.768448      -64.153473
 H         -73.690277     -189.531006      -65.097275
 H         -72.152367     -187.860825      -64.222595
 H         -70.995567     -188.318985      -62.948803
 H         -71.844467     -190.322571      -62.576481
 H         -73.344376     -189.185974      -62.571323
