20
 generated by VMD
 C         -70.313881     -182.710388      -65.224419
 N         -70.742607     -183.700760      -65.563400
 H         -68.068794     -181.361893      -62.964512
 H         -69.829887     -181.825577      -64.931480
 C         -67.546822     -181.425064      -61.985447
 C         -67.686096     -182.600021      -61.116989
 C         -66.993896     -180.218124      -61.445099
 C         -66.499786     -182.860413      -60.268406
 C         -65.917831     -180.481171      -60.430866
 C         -66.169861     -181.602615      -59.411015
 H         -67.796455     -183.453735      -61.869282
 H         -68.621811     -182.505753      -60.562653
 H         -66.454689     -179.684357      -62.356678
 H         -67.817131     -179.523575      -61.056553
 H         -65.633308     -183.214249      -60.932983
 H         -66.569244     -183.632858      -59.456848
 H         -65.631241     -179.559952      -59.888977
 H         -65.037849     -180.779099      -61.032314
 H         -65.224861     -181.641144      -58.856960
 H         -66.919952     -181.318512      -58.752987
