20
 generated by VMD
 C         -58.344769     -151.102249      -49.288403
 N         -58.530437     -152.041855      -48.683796
 H         -55.768372     -150.076828      -47.980057
 H         -58.179993     -150.232620      -49.953526
 C         -55.153896     -149.489166      -48.695827
 C         -54.285164     -150.520691      -49.446461
 C         -55.040905     -147.980759      -48.926533
 C         -54.163204     -150.067993      -50.934784
 C         -54.867691     -147.604568      -50.447598
 C         -53.831036     -148.591568      -51.081787
 H         -54.847214     -151.455658      -49.484539
 H         -53.256989     -150.551010      -49.037792
 H         -55.975903     -147.509659      -48.457050
 H         -54.097252     -147.665222      -48.342087
 H         -55.144707     -150.316467      -51.358311
 H         -53.359776     -150.728760      -51.366917
 H         -54.563114     -146.674469      -50.732830
 H         -55.879093     -147.736755      -51.024029
 H         -53.713108     -148.394928      -52.193829
 H         -52.873928     -148.326813      -50.644650
