20
 generated by VMD
 C         -78.314117     -209.768066      -77.065933
 N         -78.795227     -208.818832      -77.599564
 H         -78.960526     -210.704971      -73.626869
 H         -77.860107     -210.579483      -76.630905
 C         -78.825905     -211.566605      -72.910095
 C         -77.641357     -211.786636      -71.950974
 C         -79.902466     -212.566116      -72.864441
 C         -78.063957     -212.196396      -70.567284
 C         -80.480408     -212.685730      -71.461517
 C         -79.302399     -213.225891      -70.729301
 H         -77.073326     -210.882248      -71.757500
 H         -77.084663     -212.617783      -72.360146
 H         -80.714806     -212.229294      -73.494049
 H         -79.675301     -213.603622      -73.307266
 H         -78.490204     -211.335312      -69.977089
 H         -77.148087     -212.562698      -70.105118
 H         -81.340179     -213.433121      -71.421402
 H         -80.822464     -211.802338      -71.044640
 H         -79.483521     -213.636765      -69.696228
 H         -78.998428     -214.079697      -71.336739
