20
 generated by VMD
 C         -31.104847      -75.462540      -21.328739
 N         -32.233318      -75.565010      -21.666397
 H         -27.945717      -75.826668      -20.087215
 H         -29.965832      -75.357117      -21.534479
 C         -27.265427      -75.544693      -20.863831
 C         -26.654022      -76.714676      -21.762039
 C         -26.381964      -74.376663      -20.578997
 C         -25.738840      -76.174446      -22.846464
 C         -25.545696      -73.892616      -21.747261
 C         -24.732393      -75.156143      -22.342920
 H         -27.392845      -77.289886      -22.267056
 H         -26.050262      -77.203766      -20.969778
 H         -27.020296      -73.526978      -20.165859
 H         -25.914270      -74.656158      -19.671942
 H         -26.366163      -75.664307      -23.562849
 H         -25.258247      -76.984673      -23.393124
 H         -24.887894      -73.084137      -21.419706
 H         -26.283253      -73.642609      -22.471298
 H         -24.095339      -74.900986      -23.179914
 H         -24.188049      -75.477280      -21.461182
