20
 generated by VMD
 C         -79.468330     -206.761230      -74.573891
 N         -80.254601     -207.645859      -74.426506
 H         -76.742050     -207.709885      -73.397888
 H         -78.700241     -206.026718      -74.553101
 C         -76.750549     -207.861435      -72.277184
 C         -75.663460     -207.213821      -71.433128
 C         -77.758453     -208.785675      -71.577248
 C         -75.652733     -207.473343      -69.912514
 C         -78.016815     -208.488541      -70.147110
 C         -76.624405     -208.535995      -69.382248
 H         -75.438454     -206.273468      -71.907707
 H         -74.808434     -207.859055      -71.630661
 H         -78.643517     -208.670227      -72.271606
 H         -77.362610     -209.802444      -71.662605
 H         -75.848877     -206.468262      -69.463737
 H         -74.600487     -207.652847      -69.545853
 H         -78.747375     -209.190048      -69.618896
 H         -78.492157     -207.513367      -70.168411
 H         -76.845154     -208.380859      -68.361160
 H         -76.088852     -209.506195      -69.524452
