20
 generated by VMD
 C         -51.823254     -129.998932      -45.207596
 N         -51.729115     -129.471466      -46.192844
 H         -48.840183     -129.948868      -43.074543
 H         -51.651241     -130.503098      -44.252277
 C         -47.931759     -130.047073      -42.405956
 C         -47.854336     -131.479111      -41.717953
 C         -47.266594     -128.891953      -41.605160
 C         -46.509319     -131.720856      -40.992477
 C         -46.010063     -129.236084      -40.871731
 C         -46.209381     -130.561707      -40.165623
 H         -48.140980     -132.259155      -42.551285
 H         -48.630142     -131.627945      -40.955975
 H         -47.076820     -128.080429      -42.331303
 H         -48.176056     -128.679672      -40.924953
 H         -45.949760     -132.122437      -41.796284
 H         -46.530884     -132.615036      -40.401424
 H         -45.716583     -128.524368      -40.013477
 H         -45.124794     -129.330444      -41.563572
 H         -45.307377     -130.803894      -39.577126
 H         -47.134319     -130.510132      -39.537991
