20
 generated by VMD
 C         -10.498788      -39.939732       -6.862926
 N         -11.313999      -40.189419       -6.163154
 H         -13.710499      -40.752487       -8.885212
 H         -15.024870      -39.894527       -9.567935
 C         -14.679670      -40.888023       -9.334311
 C         -15.388581      -41.543636       -8.175058
 C         -14.681569      -41.728748      -10.561145
 C         -16.747583      -42.138416       -8.526534
 C         -16.094305      -42.092197      -10.973602
 C         -16.783554      -42.855263       -9.876579
 H         -15.574274      -40.906044       -7.243826
 H         -14.763985      -42.375305       -7.760622
 H         -14.090453      -41.147511      -11.342761
 H         -14.115466      -42.650703      -10.416799
 H         -17.536461      -41.391834       -8.399225
 H         -17.047752      -42.878273       -7.738717
 H         -15.965428      -42.767696      -11.771853
 H         -16.657419      -41.154575      -11.322796
 H         -17.842165      -42.904278      -10.162542
 H         -16.283691      -43.807117       -9.759132
