20
 generated by VMD
 C         -69.012421     -186.999374      -67.827629
 N         -67.956078     -187.434525      -67.556442
 H         -68.222710     -187.185516      -64.106506
 H         -69.958351     -186.618866      -68.026955
 C         -69.134872     -187.444916      -63.596729
 C         -68.944237     -187.815887      -62.219395
 C         -70.478004     -186.995850      -64.120964
 C         -70.219093     -188.607315      -61.583912
 C         -71.483261     -187.908249      -63.710949
 C         -71.557655     -188.076599      -62.147934
 H         -68.717125     -186.915924      -61.652763
 H         -68.088539     -188.494293      -62.117535
 H         -70.636925     -186.055893      -63.640800
 H         -70.402145     -186.981293      -65.221352
 H         -70.192795     -188.559586      -60.528000
 H         -69.983833     -189.669861      -61.776352
 H         -71.297943     -188.864990      -64.156326
 H         -72.474457     -187.726303      -64.040840
 H         -71.865234     -187.040619      -61.818470
 H         -72.409576     -188.724335      -61.736324
