20
 generated by VMD
 C         -78.686569     -208.901794      -77.111404
 N         -79.519775     -208.498077      -76.360909
 H         -78.340729     -209.266235      -73.451454
 H         -77.850914     -209.123413      -77.657051
 C         -78.257072     -209.867981      -72.544449
 C         -77.045135     -209.649414      -71.641708
 C         -79.215797     -211.074829      -72.210487
 C         -77.153511     -210.305267      -70.147774
 C         -79.307091     -211.439194      -70.778168
 C         -77.956886     -211.647888      -70.086288
 H         -76.846260     -208.591263      -71.456474
 H         -76.237022     -210.162430      -72.197998
 H         -80.286163     -210.993103      -72.624390
 H         -78.766670     -211.938507      -72.769142
 H         -77.749550     -209.624039      -69.551590
 H         -76.168892     -210.324509      -69.715179
 H         -80.010635     -212.251785      -70.492714
 H         -79.716896     -210.550568      -70.237907
 H         -78.233383     -211.715439      -68.996628
 H         -77.322945     -212.510345      -70.425781
