20
 generated by VMD
 C         -60.203697     -153.289658      -51.842010
 N         -60.271389     -152.292496      -51.357098
 H         -57.289513     -153.791809      -50.000717
 H         -60.160427     -154.319931      -52.156090
 C         -56.394032     -153.182846      -50.123165
 C         -55.141148     -153.416229      -49.355663
 C         -56.676888     -151.834198      -50.788418
 C         -54.045506     -152.865021      -50.235569
 C         -55.533165     -151.209702      -51.583965
 C         -54.295120     -151.371643      -50.746090
 H         -55.146595     -154.530869      -49.050339
 H         -55.200466     -152.653610      -48.527512
 H         -57.544445     -151.986832      -51.445335
 H         -57.066902     -151.095291      -50.067287
 H         -54.076576     -153.526520      -51.108891
 H         -53.108509     -152.909760      -49.750092
 H         -55.935501     -150.205414      -51.828651
 H         -55.456886     -151.702606      -52.637497
 H         -53.469990     -151.035126      -51.314678
 H         -54.539043     -150.627518      -49.894867
