20
 generated by VMD
 C         -31.399792      -77.592545      -26.108818
 N         -31.697514      -78.010513      -27.177601
 H         -29.359383      -78.992500      -23.982887
 H         -30.840719      -77.384209      -25.277565
 C         -28.923391      -79.781845      -23.348314
 C         -27.481339      -79.719917      -23.042706
 C         -29.905928      -80.656967      -22.649025
 C         -26.969532      -80.569778      -21.875669
 C         -29.282293      -81.489120      -21.490797
 C         -27.812237      -81.764389      -21.649277
 H         -27.069113      -78.691544      -22.808691
 H         -26.922583      -79.901260      -24.040579
 H         -30.758665      -80.088669      -22.236332
 H         -30.354929      -81.307251      -23.452108
 H         -26.816706      -80.040764      -20.968845
 H         -25.962423      -80.927246      -22.257027
 H         -29.754128      -82.533546      -21.511967
 H         -29.563681      -80.991547      -20.575680
 H         -27.408848      -82.278404      -20.715506
 H         -27.548939      -82.419693      -22.556602
