20
 generated by VMD
 C         -62.610142     -172.213287      -55.150230
 N         -61.764099     -172.955505      -55.332603
 H         -61.531723     -170.993225      -58.200752
 H         -63.319435     -171.431763      -55.041046
 C         -62.503880     -170.476288      -58.280251
 C         -62.346741     -168.982727      -58.065811
 C         -63.786911     -171.153107      -58.495796
 C         -63.579201     -168.186142      -58.238712
 C         -65.010101     -170.239075      -58.670502
 C         -64.893509     -168.922104      -57.924187
 H         -61.587265     -168.547897      -58.717026
 H         -61.989048     -168.854309      -56.997452
 H         -63.758228     -171.847504      -59.338966
 H         -63.819340     -171.771255      -57.542191
 H         -63.684143     -167.836609      -59.285168
 H         -63.500454     -167.378571      -57.584644
 H         -65.865105     -170.820663      -58.320927
 H         -65.066650     -170.046371      -59.784424
 H         -65.763023     -168.319702      -58.164970
 H         -64.935982     -169.069305      -56.753174
