20
 generated by VMD
 C         -29.334688      -89.706322      -25.115414
 N         -29.307417      -88.791901      -25.889088
 H         -31.829277      -91.010338      -27.380680
 H         -29.499098      -90.379585      -24.346703
 C         -32.827774      -90.559578      -27.574837
 C         -34.026806      -90.843231      -26.725430
 C         -32.917057      -89.421745      -28.605019
 C         -34.623520      -89.520645      -26.249481
 C         -33.628624      -88.155792      -28.102427
 C         -34.969849      -88.560814      -27.409960
 H         -33.750465      -91.352203      -25.834238
 H         -34.784393      -91.383629      -27.168797
 H         -31.907585      -89.023781      -28.812239
 H         -33.169628      -89.915810      -29.532881
 H         -34.009426      -88.991829      -25.590328
 H         -35.549942      -89.773682      -25.804054
 H         -33.940453      -87.557632      -28.915768
 H         -32.940845      -87.609245      -27.458843
 H         -35.474213      -87.613976      -27.024683
 H         -35.732540      -88.843338      -28.234221
