20
 generated by VMD
 C         -12.649415      -30.240746       -8.134089
 N         -13.131348      -30.676622       -7.226627
 H         -11.216086      -30.439133       -5.250383
 H         -10.609431      -30.906513       -3.708375
 C         -10.865707      -31.269499       -4.717164
 C          -9.564443      -31.809601       -5.325899
 C         -11.970964      -32.368023       -4.698697
 C          -9.151660      -33.107384       -4.517231
 C         -11.465775      -33.650284       -3.954604
 C         -10.230425      -34.167625       -4.604241
 H          -8.695563      -31.098009       -5.215662
 H          -9.687428      -32.128769       -6.323068
 H         -12.915502      -32.019829       -4.227065
 H         -12.142103      -32.602798       -5.766265
 H          -9.019374      -32.780590       -3.431661
 H          -8.133554      -33.439846       -4.912143
 H         -12.240161      -34.371567       -3.994734
 H         -11.219528      -33.367714       -2.878880
 H          -9.869156      -35.021927       -4.031883
 H         -10.452735      -34.444706       -5.682174
