20
 generated by VMD
 C         -22.731499      -55.473312      -16.969538
 N         -23.097258      -54.411602      -17.213287
 H         -20.062981      -55.832172      -14.862184
 H         -22.591724      -56.528786      -16.812510
 C         -19.974577      -56.844604      -14.677189
 C         -20.603725      -57.143417      -13.391870
 C         -18.838560      -57.684082      -15.008471
 C         -20.893549      -58.626854      -13.231213
 C         -19.156734      -59.091293      -14.936417
 C         -19.771576      -59.460587      -13.594856
 H         -21.570793      -56.572701      -13.383734
 H         -20.062176      -56.664532      -12.537580
 H         -18.456764      -57.586578      -16.087601
 H         -17.983797      -57.428150      -14.405915
 H         -21.821089      -58.901829      -13.861041
 H         -21.198460      -58.782604      -12.195505
 H         -18.174576      -59.656162      -14.985450
 H         -19.771547      -59.477070      -15.740068
 H         -20.180851      -60.486805      -13.636337
 H         -18.971304      -59.571552      -12.887757
