20
 generated by VMD
 C         -73.941307     -200.773514      -65.491432
 N         -72.866470     -201.115234      -65.270889
 H         -73.842484     -198.172043      -66.609222
 H         -75.004631     -200.415009      -65.648560
 C         -73.901680     -197.490204      -67.476280
 C         -74.378059     -196.081894      -67.480209
 C         -73.344086     -198.145813      -68.708687
 C         -73.536087     -195.250763      -68.452980
 C         -73.704231     -197.425323      -69.958229
 C         -73.717438     -195.835861      -69.885674
 H         -74.339561     -195.596237      -66.408348
 H         -75.412422     -196.148407      -67.608162
 H         -72.241402     -198.012299      -68.676567
 H         -73.381081     -199.233109      -68.684639
 H         -72.433052     -195.240112      -68.178856
 H         -73.931709     -194.233810      -68.516701
 H         -74.734978     -197.677261      -70.121567
 H         -73.138115     -197.811188      -70.785423
 H         -72.935173     -195.493042      -70.559753
 H         -74.743607     -195.679123      -70.452469
