20
 generated by VMD
 C         -20.328835      -57.281132      -16.725641
 N         -19.421862      -56.596436      -16.821808
 H         -22.833843      -59.897087      -17.775715
 H         -21.218971      -57.898380      -16.833233
 C         -22.494030      -60.451893      -16.853840
 C         -23.601442      -60.712959      -15.950446
 C         -21.176945      -61.198277      -16.705511
 C         -23.206945      -61.015579      -14.538117
 C         -21.073839      -62.129498      -15.531447
 C         -22.100559      -62.004757      -14.369888
 H         -23.988592      -61.638355      -16.358944
 H         -24.371534      -59.887955      -15.939335
 H         -21.013783      -61.736118      -17.620432
 H         -20.406557      -60.406307      -16.689777
 H         -24.079565      -61.187813      -13.922640
 H         -22.734652      -60.127724      -14.155272
 H         -20.072855      -61.972168      -15.231628
 H         -21.072851      -63.188232      -15.819719
 H         -22.394159      -63.015831      -14.064188
 H         -21.491087      -61.484715      -13.578679
