20
 generated by VMD
 C         -39.529987     -105.561279      -37.246342
 N         -40.424576     -104.859833      -37.000912
 H         -39.123116     -108.753525      -35.440567
 H         -38.703827     -106.128906      -37.729206
 C         -39.417248     -108.685829      -34.420513
 C         -38.364761     -108.324776      -33.357964
 C         -40.697258     -109.408897      -34.086178
 C         -39.025169     -108.380753      -31.948977
 C         -41.000584     -109.500107      -32.499016
 C         -39.796570     -109.574692      -31.659775
 H         -37.833572     -107.355309      -33.688927
 H         -37.599445     -109.133331      -33.423500
 H         -41.575035     -109.146988      -34.599895
 H         -40.497070     -110.431595      -34.361805
 H         -39.508041     -107.462547      -31.813053
 H         -38.247932     -108.384460      -31.203144
 H         -41.706028     -110.389267      -32.377445
 H         -41.533176     -108.552864      -32.345364
 H         -40.159668     -109.659935      -30.558071
 H         -39.263542     -110.428192      -31.905674
