20
 generated by VMD
 C          -5.799175      -21.234722        1.891086
 N          -6.319671      -22.040575        1.331739
 H          -5.129471      -18.815395       -1.155326
 H          -5.950459      -19.922235        0.087937
 C          -5.858609      -19.645893       -0.978303
 C          -5.506234      -20.851528       -1.874587
 C          -7.183112      -18.929527       -1.371494
 C          -6.723835      -21.745192       -2.126248
 C          -8.399304      -19.856752       -1.677036
 C          -7.919156      -20.974016       -2.619442
 H          -4.744923      -21.402592       -1.393274
 H          -5.056284      -20.572477       -2.862093
 H          -7.456243      -18.167187       -0.680527
 H          -7.062860      -18.188791       -2.158558
 H          -7.008445      -22.342377       -1.271422
 H          -6.448678      -22.490795       -2.867965
 H          -9.233514      -19.301149       -2.114781
 H          -8.792062      -20.279533       -0.750071
 H          -8.714769      -21.661863       -2.857253
 H          -7.731909      -20.542055       -3.583059
