20
 generated by VMD
 C          -7.202866      -23.457924        1.742968
 N          -7.404708      -22.479761        2.250128
 H          -8.803924      -23.439186       -1.383959
 H          -9.343595      -22.266054       -2.529548
 C          -8.473125      -22.761471       -2.093194
 C          -7.556295      -23.480618       -3.049309
 C          -7.770788      -21.626619       -1.370651
 C          -6.998200      -22.598818       -4.099501
 C          -7.177351      -20.674316       -2.346682
 C          -6.232781      -21.436008       -3.377229
 H          -8.198604      -24.178312       -3.640749
 H          -6.813679      -23.944740       -2.463169
 H          -8.490645      -21.167856       -0.640265
 H          -6.955510      -21.956987       -0.708770
 H          -7.666622      -22.305511       -4.932502
 H          -6.273804      -23.177767       -4.683228
 H          -6.570826      -19.925680       -1.779020
 H          -7.907033      -19.995394       -2.829165
 H          -5.954831      -20.739643       -4.162843
 H          -5.314028      -21.777781       -2.960653
