20
 generated by VMD
 C         -23.121742      -54.946053      -16.795639
 N         -23.706053      -55.123775      -15.766983
 H         -19.886835      -55.371330      -15.373756
 H         -22.306517      -55.239140      -17.612827
 C         -19.197304      -55.994938      -14.778199
 C         -19.332743      -55.850319      -13.270586
 C         -18.486038      -57.191940      -15.234230
 C         -20.254396      -57.011608      -12.905313
 C         -19.051107      -58.432533      -14.666995
 C         -19.731192      -58.377800      -13.346058
 H         -19.648811      -54.867054      -12.977615
 H         -18.348871      -55.995594      -12.816383
 H         -18.588985      -57.408901      -16.265024
 H         -17.444168      -57.047188      -14.992904
 H         -21.239830      -56.805496      -13.314147
 H         -20.464581      -57.055218      -11.792032
 H         -18.250280      -59.142311      -14.584883
 H         -19.793097      -58.776051      -15.455338
 H         -20.529716      -59.097843      -13.357284
 H         -19.085249      -58.808735      -12.547823
