20
 generated by VMD
 C         -67.767891     -178.031158      -57.776024
 N         -67.179314     -178.718094      -57.035225
 H         -64.800896     -176.515320      -59.078438
 H         -68.344543     -177.471420      -58.542606
 C         -64.574280     -175.463516      -59.406872
 C         -65.716545     -174.567902      -59.821301
 C         -63.352158     -175.150208      -60.250198
 C         -65.439499     -173.073181      -59.653740
 C         -62.990482     -173.712723      -60.088306
 C         -64.159912     -172.726074      -60.428436
 H         -66.598518     -174.759399      -59.283409
 H         -65.917191     -174.872955      -60.915791
 H         -62.625465     -175.915634      -60.064629
 H         -63.788452     -175.384705      -61.243237
 H         -65.146202     -172.906250      -58.636482
 H         -66.262474     -172.404556      -59.916267
 H         -62.023685     -173.503754      -60.648766
 H         -62.818928     -173.419250      -59.112453
 H         -64.047966     -171.662079      -60.360733
 H         -64.351707     -172.901611      -61.576607
