20
 generated by VMD
 C         -40.101555     -104.761131      -35.987076
 N         -39.485188     -104.624672      -36.970306
 H         -40.507305     -107.930595      -35.064796
 H         -40.911911     -104.885658      -35.244076
 C         -39.875984     -108.081894      -34.199146
 C         -38.878204     -107.119614      -33.766140
 C         -40.127529     -109.374809      -33.543247
 C         -38.884586     -107.031006      -32.144829
 C         -39.971027     -109.354561      -31.968760
 C         -38.787766     -108.379189      -31.545221
 H         -38.973000     -106.094574      -34.141933
 H         -37.972836     -107.303345      -34.262436
 H         -41.102093     -109.817459      -33.695984
 H         -39.440510     -110.080315      -33.954067
 H         -39.835186     -106.653275      -31.764797
 H         -38.038013     -106.447594      -31.790993
 H         -39.779461     -110.341553      -31.593681
 H         -40.905342     -108.945465      -31.548782
 H         -38.669453     -108.417931      -30.374352
 H         -37.960484     -108.848297      -31.994274
