20
 generated by VMD
 C         -67.557045     -179.806686      -58.465065
 N         -68.276230     -179.875000      -59.392357
 H         -67.348549     -176.802658      -59.949322
 H         -66.957581     -179.793259      -57.522743
 C         -66.422707     -176.416092      -60.168888
 C         -66.074646     -175.639359      -61.403389
 C         -65.221298     -176.895615      -59.242062
 C         -64.926231     -174.565216      -61.199512
 C         -64.119537     -175.947739      -59.199200
 C         -63.697994     -175.347565      -60.536442
 H         -66.828613     -175.075089      -61.902454
 H         -65.662712     -176.423645      -62.103230
 H         -65.653664     -177.131577      -58.286968
 H         -65.021660     -177.829102      -59.685020
 H         -65.270935     -173.727448      -60.617756
 H         -64.530952     -174.305725      -62.107487
 H         -63.358635     -176.447845      -58.637764
 H         -64.402954     -175.069351      -58.586937
 H         -63.011650     -174.480667      -60.439304
 H         -63.319149     -176.104294      -61.253353
