20
 generated by VMD
 C         -60.758331     -153.303879      -52.346210
 N         -61.128502     -153.683640      -51.258347
 H         -57.692585     -153.809494      -51.115036
 H         -60.448223     -152.795303      -53.293739
 C         -56.682644     -153.416107      -50.950172
 C         -56.001846     -153.707001      -49.609840
 C         -56.265713     -152.263397      -51.743126
 C         -54.483868     -153.572769      -49.822662
 C         -54.841488     -151.805878      -51.698044
 C         -54.178101     -152.203033      -50.324245
 H         -56.293533     -154.733551      -49.250488
 H         -56.429218     -152.937698      -48.971802
 H         -56.774616     -152.205582      -52.698074
 H         -56.747925     -151.450317      -51.137947
 H         -54.178513     -154.398895      -50.396400
 H         -54.031826     -153.650177      -48.875732
 H         -54.590302     -150.602051      -51.757427
 H         -54.323292     -152.202408      -52.563610
 H         -53.074829     -152.256760      -50.528980
 H         -54.305790     -151.346649      -49.662209
