20
 generated by VMD
 C          -6.880695      -22.839762        2.201077
 N          -6.070589      -22.792961        2.962484
 H          -5.852964      -20.475342       -0.240680
 H          -7.519252      -21.175192       -0.392853
 C          -6.671454      -20.747187       -0.968946
 C          -6.081619      -21.725435       -1.990132
 C          -7.191169      -19.478252       -1.690667
 C          -7.043476      -22.082502       -3.093775
 C          -8.222314      -19.853304       -2.817555
 C          -7.581800      -20.857351       -3.843982
 H          -5.696973      -22.561085       -1.473598
 H          -5.096773      -21.329519       -2.407378
 H          -7.800123      -18.854485       -0.998404
 H          -6.278892      -18.998604       -2.157991
 H          -7.944838      -22.569124       -2.643855
 H          -6.529004      -22.749786       -3.833718
 H          -8.523783      -18.975245       -3.451475
 H          -9.049429      -20.357655       -2.274419
 H          -8.246278      -21.184395       -4.680633
 H          -6.761731      -20.235270       -4.318047
