20
 generated by VMD
 C         -77.501801     -203.045837      -69.482109
 N         -77.920471     -203.861038      -68.785370
 H         -75.017143     -201.932571      -67.130035
 H         -77.126175     -202.188843      -69.932373
 C         -75.010139     -201.585648      -68.208786
 C         -75.154831     -200.172333      -68.560921
 C         -73.911827     -202.368805      -68.879730
 C         -74.746986     -199.619049      -69.947174
 C         -73.151482     -201.649643      -69.961906
 C         -74.015274     -200.821808      -70.791206
 H         -74.522507     -199.655090      -67.852852
 H         -76.220291     -199.794998      -68.321815
 H         -73.185181     -202.772064      -68.095345
 H         -74.380577     -203.253326      -69.311249
 H         -73.876640     -199.008438      -69.840050
 H         -75.555824     -199.220322      -70.501762
 H         -72.642960     -202.375900      -70.633759
 H         -72.495934     -200.991135      -69.360878
 H         -73.377609     -200.392380      -71.536163
 H         -74.848457     -201.507462      -71.305573
