20
 generated by VMD
 C         -60.124226     -156.556122      -55.497169
 N         -60.868732     -155.789627      -56.078102
 H         -59.838741     -157.770782      -52.648151
 H         -59.414570     -157.249054      -55.045391
 C         -58.742397     -158.005981      -52.822575
 C         -57.736732     -156.868958      -52.716793
 C         -58.314899     -159.284134      -52.314186
 C         -57.315739     -156.762680      -51.193157
 C         -58.093975     -159.168137      -50.834812
 C         -56.958443     -158.099213      -50.462406
 H         -58.210686     -155.918213      -53.211178
 H         -56.747471     -157.151825      -53.235935
 H         -59.240383     -159.908478      -52.479061
 H         -57.414040     -159.810104      -52.752651
 H         -58.237873     -156.469696      -50.693687
 H         -56.508331     -156.004517      -50.857960
 H         -57.707600     -160.148376      -50.401321
 H         -59.060589     -158.862122      -50.396088
 H         -56.789604     -157.998306      -49.445145
 H         -55.942097     -158.511612      -50.884056
