20
 generated by VMD
 C         -67.657013     -191.715805      -66.503418
 N         -66.719238     -191.675217      -67.232056
 H         -70.393112     -189.710968      -66.269302
 H         -68.366234     -191.823090      -65.706833
 C         -71.134514     -189.881622      -65.511879
 C         -71.975365     -191.057846      -65.763931
 C         -71.089363     -189.294571      -64.193169
 C         -73.316734     -191.124969      -64.978203
 C         -72.559715     -189.199234      -63.707966
 C         -73.072929     -190.646790      -63.567997
 H         -71.377388     -192.061691      -65.692635
 H         -72.187744     -191.074219      -66.880119
 H         -70.421112     -189.888504      -63.515972
 H         -70.584785     -188.327805      -64.230125
 H         -73.651993     -192.145767      -65.097061
 H         -73.955086     -190.377396      -65.443436
 H         -73.124557     -188.644516      -64.412621
 H         -72.385117     -188.755020      -62.740749
 H         -72.436172     -191.394241      -63.045803
 H         -73.912025     -190.490662      -62.949631
