20
 generated by VMD
 C         -40.059097      -99.530327      -28.812565
 N         -39.312443     -100.079208      -28.154444
 H         -37.400532      -98.199677      -30.680683
 H         -40.954102      -99.203651      -29.397863
 C         -36.363422      -98.400902      -30.736561
 C         -35.690025      -98.903885      -32.028229
 C         -35.452187      -98.285522      -29.555746
 C         -34.660957      -97.848991      -32.457840
 C         -34.367546      -97.408936      -30.000046
 C         -33.703678      -97.845741      -31.295738
 H         -36.531418      -98.753036      -32.800102
 H         -35.388065      -99.939575      -31.929092
 H         -36.101833      -97.820892      -28.732378
 H         -35.110027      -99.285751      -29.299557
 H         -35.059944      -96.855186      -32.576878
 H         -34.004631      -98.187752      -33.359753
 H         -33.488434      -97.282135      -29.297094
 H         -34.816479      -96.399559      -30.079754
 H         -32.989094      -97.101601      -31.514093
 H         -33.209881      -98.871338      -31.088289
