20
 generated by VMD
 C         -20.779652      -64.257584      -16.686993
 N         -19.698448      -63.883190      -16.705444
 H         -23.637768      -63.378933      -17.348743
 H         -21.808224      -64.683250      -16.862923
 C         -23.899155      -64.307495      -17.774096
 C         -24.496637      -64.482826      -19.171646
 C         -24.496313      -65.273491      -16.818464
 C         -24.949995      -65.910057      -19.584305
 C         -24.639994      -66.729286      -17.190834
 C         -25.434568      -66.856384      -18.530783
 H         -23.809507      -64.076401      -19.881491
 H         -25.409479      -63.854633      -19.173193
 H         -23.860119      -65.152412      -15.809060
 H         -25.559072      -64.831856      -16.686172
 H         -24.020309      -66.281975      -20.041355
 H         -25.573919      -65.759758      -20.502571
 H         -24.965282      -67.359962      -16.353750
 H         -23.595648      -67.055138      -17.497932
 H         -25.352955      -67.886116      -18.835995
 H         -26.590240      -66.728264      -18.382893
