20
 generated by VMD
 C         -19.996037      -61.891964      -17.751511
 N         -19.743654      -61.717865      -16.606291
 H         -21.949324      -64.881271      -16.631224
 H         -20.044037      -62.124004      -18.760252
 C         -22.967884      -65.030434      -17.028528
 C         -23.147570      -64.270599      -18.318924
 C         -24.069336      -65.270554      -16.061850
 C         -24.504559      -64.808250      -18.959333
 C         -25.312643      -65.832603      -16.791826
 C         -25.712563      -65.022591      -18.022635
 H         -22.279585      -64.511070      -19.022264
 H         -22.987072      -63.201096      -18.067642
 H         -23.837887      -66.024582      -15.218554
 H         -24.424681      -64.353516      -15.609377
 H         -24.289646      -65.826401      -19.279739
 H         -24.743622      -64.170601      -19.833458
 H         -26.158108      -65.901825      -16.123260
 H         -25.202999      -66.881371      -17.005289
 H         -26.492737      -65.645645      -18.513802
 H         -26.152283      -64.099510      -17.788353
