20
 generated by VMD
 C         -49.013706     -133.042984      -47.128254
 N         -48.199200     -133.191040      -47.982891
 H         -48.491688     -134.470352      -43.721153
 H         -49.917675     -133.251297      -46.501362
 C         -49.467068     -134.896545      -43.834114
 C         -49.856972     -136.263336      -44.404282
 C         -50.565315     -134.257538      -43.012035
 C         -50.259819     -137.204742      -43.306595
 C         -51.070248     -135.287460      -41.895802
 C         -51.460575     -136.606277      -42.425465
 H         -49.029320     -136.737137      -45.024635
 H         -50.705650     -136.169800      -45.009686
 H         -50.258118     -133.294022      -42.571190
 H         -51.380135     -134.093369      -43.665001
 H         -49.320042     -137.496002      -42.766701
 H         -50.574066     -138.166824      -43.748295
 H         -51.860611     -134.871979      -41.152054
 H         -50.084682     -135.399643      -41.274071
 H         -51.611240     -137.359589      -41.587315
 H         -52.270988     -136.428864      -43.237396
