20
 generated by VMD
 C         -30.159264      -74.068413      -20.670046
 N         -29.986872      -75.174812      -20.376427
 H         -27.278793      -74.434944      -19.231092
 H         -30.292479      -73.101593      -21.268877
 C         -26.699665      -74.368919      -20.160925
 C         -26.090729      -75.498550      -20.937317
 C         -26.004168      -73.040779      -20.417646
 C         -25.986511      -75.142479      -22.485508
 C         -25.895473      -72.698914      -21.861650
 C         -25.280142      -73.798058      -22.687908
 H         -26.766104      -76.505272      -20.792423
 H         -25.155979      -75.835945      -20.454905
 H         -26.456764      -72.179375      -19.977358
 H         -24.982800      -73.044434      -19.931417
 H         -26.923471      -75.091164      -23.058720
 H         -25.395636      -75.934708      -22.907246
 H         -25.159628      -71.827995      -21.880642
 H         -26.978693      -72.326424      -22.170919
 H         -25.240063      -73.560570      -23.738682
 H         -24.261610      -73.887543      -22.272308
