20
 generated by VMD
 C         -25.665777      -71.345818      -16.847597
 N         -26.262131      -72.219414      -16.389841
 H         -24.307032      -68.989006      -18.817238
 H         -24.965549      -70.536545      -17.316116
 C         -24.829805      -69.475357      -19.645754
 C         -23.957882      -70.427666      -20.432350
 C         -25.842609      -68.619026      -20.230267
 C         -24.998213      -71.343803      -21.318523
 C         -26.765263      -69.453720      -21.026743
 C         -26.018103      -70.389503      -21.980186
 H         -23.408121      -71.251465      -19.948925
 H         -23.241516      -70.004059      -21.171345
 H         -26.428766      -68.047234      -19.486488
 H         -25.293484      -67.764694      -20.836113
 H         -25.453289      -71.987152      -20.550062
 H         -24.367113      -71.897850      -21.945206
 H         -27.324379      -68.738724      -21.644814
 H         -27.605263      -70.013680      -20.666763
 H         -26.818937      -70.888855      -22.545664
 H         -25.514933      -69.914642      -22.813183
