20
 generated by VMD
 C         -48.043591     -140.083862      -45.922829
 N         -46.909866     -139.805481      -45.690502
 H         -51.040657     -138.793808      -45.200981
 H         -49.117596     -140.344696      -46.074444
 C         -51.935677     -139.232040      -45.617924
 C         -52.130707     -139.441208      -47.050472
 C         -53.215454     -139.184464      -44.712273
 C         -53.166534     -140.513184      -47.455479
 C         -54.169117     -140.299667      -45.057163
 C         -54.444012     -140.297104      -46.512821
 H         -51.147644     -139.790298      -47.462841
 H         -52.490566     -138.477478      -47.441753
 H         -52.951878     -139.218124      -43.636742
 H         -53.641338     -138.114471      -44.762714
 H         -52.772511     -141.418228      -47.072582
 H         -53.299355     -140.585800      -48.493137
 H         -55.265930     -140.075150      -44.696564
 H         -53.716347     -141.235580      -44.684471
 H         -55.100594     -141.052094      -46.916130
 H         -55.021885     -139.370621      -46.785194
