20
 generated by VMD
 C         -30.086926      -92.233795      -25.658157
 N         -29.293266      -92.327370      -24.820190
 H         -32.272865      -90.025139      -26.720032
 H         -30.820517      -92.284508      -26.365192
 C         -33.166176      -90.181664      -27.305592
 C         -34.091110      -91.350807      -27.235020
 C         -33.264015      -89.290398      -28.527431
 C         -35.543205      -91.139565      -27.775078
 C         -34.750683      -89.314468      -29.137432
 C         -35.515820      -90.586838      -29.133081
 H         -34.001160      -91.730484      -26.155846
 H         -33.653034      -92.215050      -27.794012
 H         -33.148876      -88.275902      -28.175465
 H         -32.538589      -89.469994      -29.274246
 H         -35.963894      -90.539703      -27.009336
 H         -36.046970      -92.114273      -27.716524
 H         -34.710075      -89.117157      -30.232864
 H         -35.396957      -88.462738      -28.867451
 H         -36.583366      -90.308266      -29.441349
 H         -35.174850      -91.266800      -29.960953
