20
 generated by VMD
 C         -56.226685     -150.078674      -46.788589
 N         -57.028732     -150.453751      -45.998436
 H         -53.613796     -148.061386      -47.607403
 H         -55.583160     -149.750259      -47.587017
 C         -53.781418     -147.512451      -48.524681
 C         -53.070019     -147.926376      -49.719841
 C         -54.430752     -146.177231      -48.660938
 C         -53.846531     -147.717621      -51.100842
 C         -55.458637     -146.127548      -49.779121
 C         -54.577812     -146.337082      -51.152210
 H         -52.605026     -148.983719      -49.559597
 H         -52.149948     -147.401505      -49.917027
 H         -54.884777     -145.877151      -47.692085
 H         -53.655102     -145.466171      -48.622169
 H         -54.624649     -148.517166      -51.043423
 H         -53.219101     -148.014679      -52.028206
 H         -56.041504     -145.118713      -49.734852
 H         -56.121552     -146.985809      -49.678944
 H         -55.261013     -146.335083      -52.030106
 H         -53.925873     -145.470322      -51.324066
