20
 generated by VMD
 C         -19.967779      -59.824436      -17.643850
 N         -19.442146      -58.909260      -18.139021
 H         -23.449684      -59.861099      -16.003839
 H         -20.337267      -60.581631      -16.869995
 C         -23.002794      -60.804581      -15.934785
 C         -23.149870      -61.515209      -17.362713
 C         -22.972307      -61.424416      -14.641392
 C         -22.976067      -63.039928      -17.223011
 C         -22.678364      -62.934174      -14.744555
 C         -23.226336      -63.728054      -15.903069
 H         -22.420897      -61.174217      -18.050074
 H         -24.198866      -61.365417      -17.605314
 H         -22.232567      -60.921440      -13.984108
 H         -23.978077      -61.341965      -14.263163
 H         -21.903887      -63.192421      -17.517328
 H         -23.553104      -63.574635      -18.022644
 H         -23.108854      -63.367271      -13.860520
 H         -21.628206      -63.109737      -14.691060
 H         -22.648228      -64.667320      -15.831488
 H         -24.242102      -63.905651      -15.688320
