20
 generated by VMD
 C         -22.775688      -53.069424      -12.517347
 N         -22.781805      -52.535156      -13.566576
 H         -20.250050      -54.563564      -14.550706
 H         -22.827024      -53.375107      -11.591580
 C         -19.423355      -54.213612      -13.989659
 C         -19.066519      -52.813274      -13.930846
 C         -18.550135      -55.310314      -13.534413
 C         -17.609661      -52.576260      -13.537115
 C         -17.141890      -54.914356      -12.959919
 C         -16.581835      -53.665001      -13.553105
 H         -19.666412      -52.236214      -13.240634
 H         -19.278210      -52.462795      -14.930539
 H         -19.108994      -55.919193      -12.819568
 H         -18.259727      -55.880390      -14.390465
 H         -17.633465      -52.252029      -12.503276
 H         -17.256430      -51.711720      -14.100953
 H         -16.393112      -55.747631      -13.005885
 H         -17.239260      -54.662270      -11.931805
 H         -15.657145      -53.471695      -12.942636
 H         -16.249121      -53.775196      -14.637751
