20
 generated by VMD
 C         -25.748590      -71.720284      -16.979052
 N         -26.599260      -72.403770      -16.555908
 H         -24.161819      -68.961945      -19.044439
 H         -25.044992      -71.095993      -17.365149
 C         -24.768257      -69.461487      -19.782473
 C         -24.122101      -70.648010      -20.403959
 C         -25.865124      -68.689491      -20.373512
 C         -25.127424      -71.492935      -21.167286
 C         -26.664907      -69.611786      -21.160276
 C         -25.953526      -70.572609      -22.012772
 H         -23.665167      -71.371674      -19.695730
 H         -23.222147      -70.170280      -21.061003
 H         -26.529036      -68.193886      -19.640617
 H         -25.411041      -67.897270      -21.097023
 H         -25.822426      -71.999878      -20.449524
 H         -24.611437      -72.277779      -21.712814
 H         -27.167307      -68.885597      -21.809603
 H         -27.352737      -70.230087      -20.473860
 H         -26.703823      -70.980705      -22.619341
 H         -25.203512      -70.067406      -22.622122
