20
 generated by VMD
 C         -50.417274     -145.109039      -45.177414
 N         -50.220844     -145.186279      -44.038975
 H         -53.067844     -143.148636      -45.786201
 H         -50.495163     -145.103668      -46.268959
 C         -53.458714     -143.095139      -46.817646
 C         -52.594463     -143.153656      -48.116138
 C         -54.688618     -142.239319      -46.917454
 C         -53.356194     -143.238098      -49.387310
 C         -55.466194     -142.446167      -48.298347
 C         -54.506691     -142.201965      -49.505749
 H         -51.920876     -144.096573      -47.930065
 H         -51.893066     -142.292023      -48.112751
 H         -55.305992     -142.574524      -46.051743
 H         -54.379585     -141.198227      -46.885868
 H         -53.649242     -144.358627      -49.565136
 H         -52.574852     -142.912491      -50.145744
 H         -56.415695     -141.853745      -48.148193
 H         -55.795536     -143.465927      -48.385468
 H         -55.046677     -142.196152      -50.518570
 H         -53.929230     -141.203018      -49.449215
