20
 generated by VMD
 C         -79.589180     -207.033188      -75.878532
 N         -80.203796     -207.160568      -74.853844
 H         -77.278694     -208.011307      -72.958694
 H         -78.949310     -206.765701      -76.711853
 C         -76.982727     -208.622742      -72.179512
 C         -75.790871     -208.246048      -71.375854
 C         -77.892853     -209.615295      -71.676270
 C         -76.144081     -207.832443      -69.996017
 C         -78.214790     -209.496277      -70.107765
 C         -76.933861     -208.939713      -69.293121
 H         -75.010109     -207.694061      -71.924118
 H         -75.429352     -209.279083      -71.356308
 H         -78.847153     -209.767227      -72.173851
 H         -77.366280     -210.583130      -71.794334
 H         -76.707642     -206.873459      -70.088242
 H         -75.147179     -207.627731      -69.608284
 H         -78.628876     -210.475815      -69.690002
 H         -78.969055     -208.722046      -70.000648
 H         -77.296776     -208.785049      -68.307915
 H         -76.122841     -209.699432      -69.146652
