20
 generated by VMD
 C         -11.647760      -41.978310       -6.626180
 N         -11.185844      -40.985474       -6.906949
 H         -14.383370      -40.699207       -8.481120
 H         -15.466455      -40.341980       -9.820905
 C         -15.162122      -41.162838       -9.187820
 C         -16.350779      -41.832897       -8.541545
 C         -14.493657      -42.227833      -10.044935
 C         -17.382231      -42.410473       -9.501328
 C         -15.443752      -42.771282      -11.103236
 C         -16.620138      -43.406635      -10.416884
 H         -16.871311      -41.127357       -7.921470
 H         -16.039711      -42.603539       -7.860249
 H         -13.618431      -41.783340      -10.530272
 H         -14.224990      -43.070625       -9.467608
 H         -17.730906      -41.583858      -10.157474
 H         -18.108932      -42.849060       -8.830381
 H         -14.939094      -43.470978      -11.704908
 H         -15.692643      -41.885941      -11.801066
 H         -17.350954      -43.850250      -11.114735
 H         -16.218643      -44.283844       -9.855293
