20
 generated by VMD
 C         -18.096418      -48.555843       -7.371798
 N         -18.457306      -48.873901       -6.375043
 H         -16.306616      -48.062592      -10.155030
 H         -16.022799      -49.080048      -11.657830
 C         -16.310259      -48.063599      -11.268806
 C         -15.187953      -47.102303      -11.740901
 C         -17.751747      -47.657589      -11.741655
 C         -15.310629      -46.873569      -13.287211
 C         -17.761610      -47.430317      -13.257810
 C         -16.701324      -46.499504      -13.741036
 H         -14.270769      -47.630646      -11.454319
 H         -15.353108      -46.133766      -11.183940
 H         -18.468035      -48.441895      -11.475170
 H         -18.111609      -46.769005      -11.222581
 H         -14.960456      -47.782959      -13.823775
 H         -14.620224      -46.100391      -13.662549
 H         -18.830915      -47.084824      -13.533784
 H         -17.592758      -48.352165      -13.817348
 H         -16.738831      -46.467098      -14.842943
 H         -16.904064      -45.429619      -13.453751
