20
 generated by VMD
 C         -47.469189     -124.694397      -38.021782
 N         -47.563354     -125.699562      -38.609028
 H         -44.631046     -122.475815      -37.669231
 H         -47.097740     -123.918427      -37.428391
 C         -44.769436     -122.457245      -38.782379
 C         -43.672405     -123.213692      -39.505779
 C         -45.721355     -121.668159      -39.529762
 C         -44.080902     -123.707962      -40.850143
 C         -46.139568     -122.157104      -40.864624
 C         -44.994141     -122.823402      -41.692463
 H         -43.370934     -124.016228      -38.778511
 H         -42.788956     -122.606010      -39.606392
 H         -46.578026     -121.546638      -38.856201
 H         -45.294376     -120.624329      -39.678211
 H         -44.590111     -124.624161      -40.766445
 H         -43.235641     -123.777893      -41.453419
 H         -46.764965     -121.555214      -41.521141
 H         -46.767937     -122.953987      -40.593441
 H         -45.357498     -123.362869      -42.551674
 H         -44.298668     -122.108810      -42.125408
