20
 generated by VMD
 C         -36.699406      -98.310272      -26.012154
 N         -37.319710      -98.371475      -26.979393
 H         -36.396301      -96.206932      -28.921564
 H         -36.266647      -98.281509      -25.000242
 C         -35.534378      -95.934303      -29.449411
 C         -35.622185      -96.761421      -30.692055
 C         -34.431107      -95.033470      -29.076143
 C         -35.106945      -95.946297      -31.900606
 C         -33.988110      -94.284180      -30.322845
 C         -33.795353      -95.133308      -31.543062
 H         -36.694122      -96.900642      -30.800003
 H         -35.208790      -97.806381      -30.594860
 H         -34.727879      -94.283043      -28.304392
 H         -33.761978      -95.774918      -28.573034
 H         -35.934677      -95.296066      -32.262966
 H         -34.958385      -96.735931      -32.695736
 H         -32.965698      -93.802704      -30.171579
 H         -34.669884      -93.518883      -30.586357
 H         -33.415894      -94.691071      -32.482716
 H         -33.149948      -95.885109      -31.368773
