20
 generated by VMD
 C         -13.483805      -27.976748       -2.773552
 N         -14.019583      -27.199293       -3.350191
 H         -10.372564      -28.085676       -3.142016
 H         -10.045065      -26.884018       -4.396660
 C          -9.577834      -27.612022       -3.649991
 C          -8.911638      -28.812248       -4.394053
 C          -8.560054      -26.939224       -2.680551
 C          -7.520962      -28.574825       -4.935907
 C          -7.158785      -26.623831       -3.350202
 C          -6.547645      -27.923923       -3.914544
 H          -9.662499      -28.876320       -5.223301
 H          -8.975368      -29.674997       -3.722998
 H          -8.912520      -25.920986       -2.439865
 H          -8.452643      -27.469522       -1.751945
 H          -7.535602      -27.908495       -5.835512
 H          -6.983122      -29.560637       -5.154216
 H          -6.524060      -26.283800       -2.560508
 H          -7.290634      -25.837574       -4.120326
 H          -5.590112      -27.607374       -4.388196
 H          -6.245995      -28.618641       -3.165533
