20
 generated by VMD
 C         -59.539368     -151.999496      -49.478813
 N         -58.700401     -152.340683      -50.195370
 H         -56.753613     -150.653351      -49.003662
 H         -60.365067     -151.795074      -48.774033
 C         -55.730103     -150.464584      -49.097572
 C         -54.832779     -151.449127      -49.730778
 C         -55.371628     -149.101944      -49.199211
 C         -54.209026     -151.099319      -51.114796
 C         -54.871609     -148.711807      -50.495186
 C         -53.768383     -149.614532      -51.070587
 H         -55.281334     -152.483643      -49.677631
 H         -53.939457     -151.421600      -49.093819
 H         -56.336445     -148.541428      -49.072113
 H         -54.667850     -148.746780      -48.422741
 H         -54.903378     -151.306366      -51.914093
 H         -53.406155     -151.857483      -51.294540
 H         -54.404911     -147.615906      -50.445122
 H         -55.565071     -148.585556      -51.227859
 H         -53.357861     -149.288254      -52.031235
 H         -52.975216     -149.522491      -50.379700
