20
 generated by VMD
 C         -46.723274     -124.687096      -37.207649
 N         -46.928337     -124.824417      -36.077366
 H         -44.512314     -121.801476      -37.767303
 H         -46.448341     -124.301773      -38.231979
 C         -44.600231     -121.908005      -38.875023
 C         -43.383224     -122.109047      -39.694778
 C         -45.906208     -121.295837      -39.495876
 C         -43.608990     -122.254730      -41.197384
 C         -46.028442     -121.574234      -40.961243
 C         -44.684219     -121.298386      -41.713333
 H         -42.987415     -123.033600      -39.252197
 H         -42.708054     -121.180130      -39.682129
 H         -46.834602     -121.743912      -38.985966
 H         -46.032581     -120.246689      -39.350376
 H         -43.918526     -123.281334      -41.349171
 H         -42.788074     -122.232262      -41.778675
 H         -46.604473     -120.760933      -41.392864
 H         -46.511246     -122.551102      -41.348976
 H         -44.780796     -121.415596      -42.780804
 H         -44.374748     -120.205681      -41.642471
