20
 generated by VMD
 C         -22.240164      -67.419868      -16.180309
 N         -21.127926      -67.110619      -16.167965
 H         -23.973660      -65.321808      -18.006826
 H         -23.272055      -67.702888      -16.463100
 C         -24.418741      -66.173943      -18.591442
 C         -23.918779      -66.642448      -19.971506
 C         -25.882759      -66.382477      -18.147617
 C         -24.301641      -68.029900      -20.266581
 C         -26.474066      -67.670135      -18.763874
 C         -25.966915      -68.010651      -20.167650
 H         -22.881109      -66.267059      -20.072769
 H         -24.511793      -65.997879      -20.735617
 H         -26.054197      -66.242912      -17.083239
 H         -26.494587      -65.491325      -18.515306
 H         -23.785192      -68.783676      -19.634760
 H         -24.019007      -68.279221      -21.341841
 H         -27.562477      -67.654778      -18.906641
 H         -26.226234      -68.503159      -17.996778
 H         -26.250006      -69.039604      -20.298306
 H         -26.303524      -67.342667      -20.984554
