20
 generated by VMD
 C         -40.879620     -102.233154      -35.016014
 N         -41.589680     -102.101746      -35.935741
 H         -39.915871     -104.671234      -32.075970
 H         -40.004616     -102.313118      -34.467037
 C         -38.801369     -104.674393      -31.759062
 C         -37.763084     -104.134064      -32.808186
 C         -38.322353     -105.968040      -31.031792
 C         -36.486469     -103.773506      -32.111275
 C         -36.966335     -105.634346      -30.443235
 C         -35.997749     -104.888878      -31.320940
 H         -38.264484     -103.282837      -33.222683
 H         -37.698620     -104.793282      -33.688354
 H         -38.987766     -106.430168      -30.286921
 H         -38.055912     -106.793549      -31.767561
 H         -36.668781     -102.876518      -31.529760
 H         -35.716267     -103.434479      -32.791660
 H         -36.672112     -106.573006      -30.059555
 H         -37.166180     -104.926643      -29.517834
 H         -35.196362     -104.592796      -30.754356
 H         -35.574284     -105.534012      -32.114212
