20
 generated by VMD
 C         -38.487724      -98.664246      -27.782387
 N         -38.407726      -99.736046      -27.385817
 H         -37.356270      -97.998283      -30.665852
 H         -38.647045      -97.591019      -27.986589
 C         -36.441952      -97.509293      -30.873983
 C         -35.661171      -98.141304      -31.986210
 C         -35.637714      -97.287865      -29.590477
 C         -34.377674      -97.349106      -32.183254
 C         -34.530155      -96.395966      -29.825930
 C         -33.656200      -96.726410      -31.002213
 H         -36.368362      -98.207558      -32.884884
 H         -35.487381      -99.165672      -31.633171
 H         -36.292908      -96.928009      -28.730537
 H         -35.243771      -98.260704      -29.269449
 H         -34.420307      -96.638214      -33.068783
 H         -33.587475      -98.103165      -32.631763
 H         -33.901951      -96.245361      -28.940577
 H         -34.983177      -95.354591      -30.004072
 H         -33.026375      -95.906845      -31.317900
 H         -32.972977      -97.561089      -30.638231
