20
 generated by VMD
 C         -11.177011      -34.041595       -8.281705
 N         -10.931358      -33.621082       -9.256553
 H         -11.559580      -37.937618       -7.894990
 H         -12.317989      -37.115215       -6.588330
 C         -12.431727      -37.959564       -7.275390
 C         -12.436955      -39.316788       -6.607266
 C         -13.757802      -37.800556       -8.108062
 C         -13.722531      -39.604702       -5.710185
 C         -15.000625      -37.896141       -7.221813
 C         -15.062012      -39.200146       -6.446983
 H         -11.534311      -39.389706       -6.019358
 H         -12.538033      -40.106220       -7.356316
 H         -13.747621      -36.900406       -8.662341
 H         -13.733026      -38.706902       -8.784739
 H         -13.580426      -38.987934       -4.860980
 H         -13.769477      -40.678211       -5.474943
 H         -15.883365      -37.692501       -7.782845
 H         -14.908942      -37.008926       -6.477295
 H         -15.833778      -39.041492       -5.660215
 H         -15.467468      -40.013538       -7.111626
