20
 generated by VMD
 C         -39.782516     -100.334999      -30.578903
 N         -40.594524     -100.273758      -31.439632
 H         -37.058914     -102.856445      -30.726437
 H         -39.024479     -100.653732      -29.950039
 C         -36.682041     -101.754425      -30.817682
 C         -36.699631     -101.039047      -32.208008
 C         -35.442860     -101.497520      -30.018894
 C         -36.252159      -99.511276      -32.345955
 C         -35.055592      -99.939949      -30.089460
 C         -34.999264      -99.232826      -31.423683
 H         -37.667694     -101.047966      -32.695599
 H         -36.014576     -101.456467      -32.959351
 H         -35.397427     -101.819855      -29.016027
 H         -34.590969     -102.099236      -30.468924
 H         -37.049385      -98.838631      -32.019730
 H         -35.972103      -99.240349      -33.363029
 H         -34.108124      -99.813431      -29.463932
 H         -35.823898      -99.457809      -29.447733
 H         -34.616737      -98.238342      -31.262728
 H         -34.195602      -99.683540      -32.026550
