20
 generated by VMD
 C         -51.322674     -129.742371      -45.254337
 N         -51.667496     -130.088684      -46.266716
 H         -48.467674     -130.178162      -43.575848
 H         -51.260887     -129.437241      -44.250751
 C         -47.999874     -130.400818      -42.659950
 C         -48.125698     -131.778748      -41.939545
 C         -47.606075     -129.310715      -41.748550
 C         -46.791428     -132.111832      -41.086994
 C         -46.332634     -129.586639      -40.942375
 C         -46.396942     -130.899384      -40.198044
 H         -48.247341     -132.676971      -42.569130
 H         -48.978264     -131.676086      -41.206097
 H         -47.462032     -128.318008      -42.357887
 H         -48.445892     -129.028824      -41.041336
 H         -46.011452     -132.190765      -41.876137
 H         -47.116264     -133.049713      -40.622822
 H         -46.108192     -128.840942      -40.171982
 H         -45.434635     -129.674622      -41.484615
 H         -45.489464     -131.195602      -39.709785
 H         -47.088863     -130.759018      -39.330425
