20
 generated by VMD
 C         -30.865124      -78.249466      -26.084320
 N         -31.790596      -77.559624      -25.792812
 H         -29.415628      -77.752525      -23.065624
 H         -30.148235      -78.823509      -26.528521
 C         -28.868225      -78.685272      -22.876862
 C         -27.419325      -78.893784      -23.104380
 C         -29.694313      -79.883377      -22.350292
 C         -26.692860      -79.754066      -22.043705
 C         -28.793188      -80.625992      -21.253738
 C         -27.501581      -81.117546      -21.900331
 H         -26.828690      -77.917458      -23.250425
 H         -27.285711      -79.313454      -24.210571
 H         -30.607040      -79.573013      -21.960682
 H         -29.938667      -80.573982      -23.251009
 H         -26.686718      -79.308090      -21.039680
 H         -25.650434      -79.795868      -22.492163
 H         -29.397160      -81.501854      -21.055811
 H         -28.638746      -80.024429      -20.425310
 H         -26.966496      -81.757607      -21.225164
 H         -27.720226      -81.629799      -22.811077
