20
 generated by VMD
 C         -59.014240     -152.320663      -50.702656
 N         -59.697865     -153.043228      -50.142921
 H         -57.125500     -151.215179      -48.943806
 H         -58.384808     -151.629318      -51.251976
 C         -56.279579     -151.006516      -49.572468
 C         -55.283371     -152.062241      -49.935513
 C         -55.575577     -149.666168      -49.241001
 C         -54.493763     -151.750839      -51.188648
 C         -54.769169     -149.311386      -50.463448
 C         -53.830181     -150.435974      -50.996033
 H         -55.763939     -153.007080      -50.030975
 H         -54.585697     -152.145584      -49.097115
 H         -56.275013     -148.878204      -48.907570
 H         -54.866756     -149.802261      -48.445503
 H         -55.093925     -151.695511      -52.117409
 H         -53.693825     -152.489777      -51.212894
 H         -54.319870     -148.233566      -50.549656
 H         -55.430561     -149.217880      -51.311081
 H         -53.439049     -150.040848      -51.985512
 H         -53.004498     -150.521515      -50.282402
