20
 generated by VMD
 C         -67.748863     -192.760696      -66.606819
 N         -68.802856     -192.826538      -67.110535
 H         -69.860031     -189.969208      -65.243828
 H         -66.746872     -192.829102      -66.163689
 C         -70.886559     -190.233856      -65.158516
 C         -71.670815     -190.886749      -66.317291
 C         -71.595619     -190.031906      -63.832272
 C         -72.419785     -192.063034      -65.750313
 C         -73.100456     -190.239700      -64.039200
 C         -73.572075     -191.490067      -64.829681
 H         -70.890999     -191.190338      -67.032295
 H         -72.337257     -190.254013      -67.009315
 H         -71.257133     -190.835312      -63.057957
 H         -71.233658     -189.083984      -63.355404
 H         -71.580254     -192.618668      -65.261574
 H         -72.913261     -192.585876      -66.620659
 H         -73.459290     -189.295090      -64.474312
 H         -73.641296     -190.258270      -63.070347
 H         -73.817909     -192.258896      -63.994892
 H         -74.388092     -191.260788      -65.395935
