20
 generated by VMD
 C         -30.463842      -74.350266      -20.952122
 N         -30.635450      -75.423912      -20.536909
 H         -27.863745      -74.535347      -19.841774
 H         -30.232325      -73.540771      -21.571419
 C         -26.871420      -74.499138      -20.371862
 C         -26.288441      -75.779099      -21.038334
 C         -25.916119      -73.336029      -20.372501
 C         -25.954235      -75.307304      -22.538435
 C         -25.619123      -73.005394      -21.784992
 C         -25.095028      -74.089157      -22.727390
 H         -27.023424      -76.540863      -21.041096
 H         -25.413866      -76.033379      -20.527990
 H         -26.403458      -72.543236      -19.835514
 H         -24.936470      -73.515305      -19.797930
 H         -26.927040      -75.033600      -22.982111
 H         -25.531498      -76.083160      -23.197590
 H         -25.050735      -72.005714      -21.813053
 H         -26.527472      -72.563889      -22.216114
 H         -25.010040      -73.627998      -23.685083
 H         -24.108194      -74.498703      -22.455675
