20
 generated by VMD
 C         -50.512516     -145.042816      -45.112350
 N         -50.600807     -145.685730      -44.101852
 H         -53.301876     -143.997192      -46.148899
 H         -50.626919     -144.495743      -46.089794
 C         -53.538246     -143.377930      -46.989182
 C         -52.537903     -143.288483      -48.188679
 C         -54.732906     -142.503387      -47.067799
 C         -53.348366     -143.451111      -49.492905
 C         -55.521294     -142.507645      -48.349697
 C         -54.447422     -142.380066      -49.563171
 H         -51.740559     -144.033447      -48.054092
 H         -52.039829     -142.230637      -48.068737
 H         -55.474052     -142.684814      -46.213390
 H         -54.367607     -141.452576      -46.840626
 H         -53.764641     -144.529190      -49.460720
 H         -52.574402     -143.413132      -50.287384
 H         -56.176781     -141.635941      -48.368664
 H         -56.031086     -143.468002      -48.237408
 H         -55.050259     -142.552505      -50.568672
 H         -54.203262     -141.275589      -49.500389
