20
 generated by VMD
 C         -77.915237     -209.988983      -76.411682
 N         -77.307686     -210.966263      -76.154800
 H         -80.547112     -212.446136      -74.745346
 H         -78.317513     -209.055222      -76.633209
 C         -80.181213     -213.244843      -74.076614
 C         -78.815651     -213.207855      -73.589333
 C         -81.177933     -213.903336      -73.178772
 C         -78.726448     -212.928284      -72.143066
 C         -81.025253     -213.793259      -71.636734
 C         -79.558060     -213.890839      -71.340347
 H         -78.253494     -212.356949      -74.083244
 H         -78.293808     -214.103897      -73.920174
 H         -82.212433     -213.505280      -73.394409
 H         -81.281990     -214.945877      -73.572014
 H         -79.293724     -211.983322      -71.908920
 H         -77.647705     -212.931747      -71.860023
 H         -81.583282     -214.584778      -71.170471
 H         -81.445747     -212.894775      -71.334145
 H         -79.432693     -213.553696      -70.403458
 H         -79.249115     -214.932999      -71.505241
