20
 generated by VMD
 C         -31.089754      -75.553162      -23.436499
 N         -30.924072      -76.010979      -24.510546
 H         -29.495676      -78.564384      -21.954723
 H         -31.662947      -75.118950      -22.666906
 C         -28.465412      -78.210007      -21.851734
 C         -27.500135      -78.389740      -23.062859
 C         -27.831900      -77.985703      -20.477192
 C         -26.538513      -77.174034      -23.062229
 C         -26.862755      -76.859871      -20.624607
 C         -25.764204      -77.078430      -21.708340
 H         -28.043776      -78.368416      -24.071123
 H         -26.923244      -79.342812      -22.979387
 H         -28.594116      -77.623772      -19.762575
 H         -27.303324      -78.855911      -20.077328
 H         -27.076553      -76.217621      -23.120306
 H         -25.865215      -77.332802      -23.947069
 H         -26.457195      -76.820656      -19.671103
 H         -27.231083      -75.832680      -20.673122
 H         -25.094444      -76.264587      -21.767878
 H         -25.274574      -78.058037      -21.553850
