20
 generated by VMD
 C         -58.009739     -150.753540      -48.936043
 N         -58.123405     -151.864304      -48.653702
 H         -55.667255     -149.694290      -47.810547
 H         -57.933262     -149.665039      -49.150436
 C         -55.212677     -149.446167      -48.779335
 C         -54.350281     -150.385208      -49.457428
 C         -55.166214     -147.949997      -48.957550
 C         -54.170448     -149.964920      -50.948250
 C         -54.890507     -147.569565      -50.364063
 C         -53.900845     -148.411163      -51.031933
 H         -54.911484     -151.320389      -49.560978
 H         -53.300800     -150.483368      -48.984531
 H         -56.173939     -147.582733      -48.637909
 H         -54.317879     -147.651077      -48.314781
 H         -54.998608     -150.230423      -51.641235
 H         -53.181416     -150.454025      -51.285736
 H         -54.615997     -146.540527      -50.287945
 H         -55.822918     -147.448257      -51.101456
 H         -53.650280     -148.168961      -52.135525
 H         -52.925079     -148.396759      -50.570824
