20
 generated by VMD
 C         -76.166206     -202.810013      -66.454491
 N         -76.988678     -203.196259      -65.715904
 H         -75.512787     -200.539017      -68.617310
 H         -75.601448     -202.484390      -67.380661
 C         -74.890640     -199.755722      -69.108368
 C         -74.778557     -198.305481      -68.663445
 C         -73.722534     -200.138580      -69.828827
 C         -73.333496     -197.770950      -68.592827
 C         -73.312622     -199.037079      -70.732323
 C         -72.767921     -197.813583      -69.995827
 H         -75.260834     -198.173889      -67.660652
 H         -75.275826     -197.675659      -69.339050
 H         -72.866928     -200.428696      -69.194000
 H         -74.007393     -200.973465      -70.413528
 H         -72.710907     -198.465912      -67.980080
 H         -73.147980     -196.855408      -67.942772
 H         -74.216690     -198.824783      -71.245941
 H         -72.530060     -199.304169      -71.408173
 H         -71.629021     -197.644714      -69.873695
 H         -73.053932     -196.985825      -70.500198
