20
 generated by VMD
 C         -47.310661     -138.713211      -45.708023
 N         -46.973423     -138.378525      -46.709999
 H         -50.852440     -137.772583      -44.796062
 H         -47.632843     -138.782181      -44.663376
 C         -51.586655     -138.532608      -45.057152
 C         -51.706295     -139.192291      -46.440395
 C         -52.839108     -138.301956      -44.297821
 C         -52.915447     -140.010574      -46.634342
 C         -53.892086     -139.323410      -44.551529
 C         -54.205490     -139.494492      -46.078442
 H         -50.823715     -139.720093      -46.753300
 H         -51.782394     -138.286392      -47.094154
 H         -52.523251     -138.353119      -43.288769
 H         -53.202888     -137.351837      -44.549805
 H         -52.722301     -141.024307      -46.247272
 H         -53.282566     -140.176514      -47.682571
 H         -54.874016     -138.882767      -44.137215
 H         -53.692604     -140.273041      -44.076641
 H         -54.874226     -140.335678      -46.094749
 H         -54.419910     -138.589569      -46.575043
