20
 generated by VMD
 C         -68.135948     -185.818939      -67.018921
 N         -68.208199     -184.817078      -67.583694
 H         -69.219429     -188.180618      -64.827927
 H         -68.195595     -186.706192      -66.441765
 C         -69.484589     -187.881638      -63.847939
 C         -69.037018     -186.503555      -63.384491
 C         -70.518219     -188.703186      -63.165642
 C         -69.425995     -186.115738      -61.971073
 C         -70.828194     -188.272430      -61.808884
 C         -70.761292     -186.744324      -61.588867
 H         -69.364632     -185.668365      -64.096947
 H         -67.939392     -186.565491      -63.433670
 H         -71.430031     -188.473404      -63.797657
 H         -70.381447     -189.824341      -63.335217
 H         -69.467880     -184.984283      -61.935314
 H         -68.592628     -186.532578      -61.375202
 H         -70.226051     -188.768295      -60.954189
 H         -71.867912     -188.602081      -61.506721
 H         -71.472717     -186.112183      -62.033894
 H         -70.971741     -186.732773      -60.537041
