20
 generated by VMD
 C         -49.387089     -133.060455      -46.895229
 N         -48.389366     -132.980713      -47.571842
 H         -48.533108     -134.287277      -44.491493
 H         -50.382668     -133.064789      -46.367374
 C         -49.255024     -134.865646      -43.969582
 C         -49.617527     -136.233429      -44.335712
 C         -50.347790     -134.108337      -43.120518
 C         -50.198570     -137.053513      -43.121769
 C         -50.905155     -134.915710      -41.998550
 C         -51.310287     -136.314285      -42.451378
 H         -48.646355     -136.731094      -44.642834
 H         -50.249565     -136.203125      -45.232014
 H         -49.792255     -133.132721      -42.725182
 H         -51.143684     -133.761047      -43.792664
 H         -49.402786     -137.328613      -42.428204
 H         -50.563248     -137.902069      -43.748035
 H         -51.733105     -134.592529      -41.472073
 H         -50.067223     -135.024323      -41.343071
 H         -51.687469     -137.029785      -41.600502
 H         -52.184666     -136.451477      -43.003128
