20
 generated by VMD
 C         -60.730362     -153.302689      -52.254726
 N         -61.218109     -153.887039      -51.355679
 H         -57.418709     -154.078110      -51.535461
 H         -60.314674     -152.752853      -53.116169
 C         -56.737724     -153.398117      -51.062714
 C         -56.139599     -153.710526      -49.776123
 C         -56.262398     -152.179260      -51.809647
 C         -54.612576     -153.675140      -49.787300
 C         -54.742615     -152.086517      -51.639576
 C         -54.170040     -152.248627      -50.278519
 H         -56.340717     -154.712891      -49.294884
 H         -56.529934     -153.089386      -48.955620
 H         -56.567539     -152.153091      -52.865879
 H         -56.672474     -151.321228      -51.219379
 H         -54.186516     -154.309250      -50.592033
 H         -54.225140     -153.803101      -48.800602
 H         -54.526485     -151.073914      -52.098030
 H         -54.162613     -152.764786      -52.274841
 H         -53.159214     -152.319794      -50.492401
 H         -54.495407     -151.568298      -49.427235
