20
 generated by VMD
 C         -68.269951     -179.499329      -58.453247
 N         -67.427917     -179.111115      -57.740002
 H         -65.969826     -176.262848      -58.861454
 H         -68.989258     -179.965103      -59.113209
 C         -65.431480     -175.752045      -59.666252
 C         -66.113907     -174.695740      -60.436100
 C         -63.946220     -176.015854      -59.624115
 C         -65.331245     -173.418915      -60.584713
 C         -63.173550     -174.806534      -59.611267
 C         -63.680386     -173.746933      -60.584675
 H         -67.081375     -174.413437      -59.915649
 H         -66.489639     -175.009979      -61.435528
 H         -63.711308     -176.608749      -58.723907
 H         -63.726959     -176.633987      -60.421715
 H         -65.318626     -172.760208      -59.646080
 H         -65.558823     -172.796326      -61.523758
 H         -62.127998     -175.058380      -59.717506
 H         -63.332401     -174.208466      -58.653004
 H         -63.137589     -172.797729      -60.531471
 H         -63.509350     -174.020325      -61.589569
