20
 generated by VMD
 C         -44.064270     -121.609604      -36.024818
 N         -43.749779     -120.585121      -35.639343
 H         -44.865685     -122.502045      -39.183250
 H         -44.265278     -122.547493      -36.469517
 C         -44.743690     -121.520424      -39.497818
 C         -43.385239     -120.980080      -39.711723
 C         -45.825809     -120.606125      -39.001404
 C         -43.426495     -119.430199      -40.161209
 C         -45.699615     -119.166153      -39.386887
 C         -44.301529     -118.559967      -39.382664
 H         -42.839127     -121.545654      -40.411114
 H         -42.776447     -121.048058      -38.808090
 H         -46.848118     -120.948441      -39.198566
 H         -45.767166     -120.534927      -37.842510
 H         -43.664974     -119.281731      -41.240665
 H         -42.314762     -119.081131      -40.079342
 H         -46.500053     -118.429871      -38.817844
 H         -45.963070     -119.013718      -40.494209
 H         -44.314175     -117.595901      -39.896496
 H         -43.963867     -118.604263      -38.382053
