20
 generated by VMD
 C         -67.717751     -179.419846      -58.601868
 N         -68.352478     -180.203583      -58.040161
 H         -66.760406     -176.611389      -59.416546
 H         -67.126915     -178.765060      -59.195137
 C         -65.946983     -176.056122      -59.970932
 C         -66.050491     -174.986160      -61.036091
 C         -64.541740     -176.474228      -59.533737
 C         -65.003372     -173.881409      -60.933174
 C         -63.624233     -175.289154      -59.394951
 C         -63.621876     -174.390671      -60.602982
 H         -67.104187     -174.570694      -60.973904
 H         -65.919899     -175.630493      -61.903309
 H         -64.460388     -177.081558      -58.549820
 H         -64.083946     -177.092606      -60.316685
 H         -65.328735     -173.306030      -60.148411
 H         -64.977150     -173.318909      -61.834782
 H         -62.674122     -175.588135      -59.088268
 H         -64.029877     -174.735992      -58.530396
 H         -62.883392     -173.582855      -60.355190
 H         -63.122906     -174.895264      -61.401432
