20
 generated by VMD
 C         -40.810909     -103.895157      -37.206520
 N         -40.701073     -104.743263      -36.433094
 H         -40.111473     -105.831024      -33.849060
 H         -41.090675     -103.039391      -37.862385
 C         -39.342468     -106.571739      -33.455582
 C         -38.039017     -106.331810      -32.790470
 C         -39.852901     -108.063446      -33.387314
 C         -37.817223     -106.841965      -31.444748
 C         -39.479492     -108.637672      -31.997108
 C         -38.116749     -108.344162      -31.390831
 H         -37.877323     -105.240265      -32.746838
 H         -37.263504     -106.565636      -33.446182
 H         -40.969727     -108.074112      -33.637833
 H         -39.361675     -108.460876      -34.307072
 H         -38.394855     -106.411667      -30.653790
 H         -36.777771     -106.680161      -31.197807
 H         -39.783020     -109.664230      -31.977371
 H         -40.285290     -108.200867      -31.346531
 H         -38.110058     -108.561890      -30.212587
 H         -37.333286     -108.945457      -31.750923
