20
 generated by VMD
 C         -28.961815      -73.460503      -19.140556
 N         -29.603565      -74.254150      -18.653488
 H         -25.157188      -72.826332      -18.862984
 H         -28.527948      -72.728699      -19.853245
 C         -25.573362      -72.795525      -19.915913
 C         -24.912241      -73.834541      -20.758600
 C         -25.734041      -71.372147      -20.358284
 C         -25.461420      -73.839729      -22.124033
 C         -26.286633      -71.337311      -21.879482
 C         -25.601830      -72.468735      -22.720869
 H         -24.881931      -74.872955      -20.307756
 H         -23.879507      -73.705505      -20.845058
 H         -26.276556      -70.825165      -19.558603
 H         -24.772015      -70.851120      -20.438358
 H         -26.444283      -74.396729      -22.164705
 H         -24.783379      -74.498650      -22.733683
 H         -26.236160      -70.254478      -22.334932
 H         -27.382824      -71.555771      -21.758648
 H         -26.006981      -72.453995      -23.753843
 H         -24.631092      -72.125404      -22.794596
