20
 generated by VMD
 C         -59.720608     -157.261566      -56.932297
 N         -60.882828     -156.927246      -56.972973
 H         -59.858650     -157.246979      -53.147083
 H         -58.704659     -157.668915      -57.075909
 C         -59.202278     -157.790009      -52.416969
 C         -57.907734     -157.180573      -51.992916
 C         -59.334904     -159.296661      -52.499878
 C         -57.306068     -158.012314      -50.754242
 C         -58.664543     -160.118454      -51.347485
 C         -57.271687     -159.516464      -51.010853
 H         -57.954227     -156.172516      -51.881828
 H         -57.341316     -157.344803      -52.907372
 H         -60.435860     -159.580307      -52.462666
 H         -58.893581     -159.733856      -53.405861
 H         -57.874626     -157.855652      -49.834515
 H         -56.384171     -157.586441      -50.440205
 H         -58.551311     -161.107635      -51.708981
 H         -59.314457     -160.205902      -50.517868
 H         -56.712212     -160.068039      -50.154938
 H         -56.687275     -159.538788      -51.858227
