20
 generated by VMD
 C         -62.457874     -172.330231      -54.950096
 N         -61.487976     -172.946945      -55.286434
 H         -61.559490     -170.965958      -58.505199
 H         -63.276131     -171.675735      -54.646889
 C         -62.454330     -170.344833      -58.575562
 C         -62.433823     -168.953384      -57.980648
 C         -63.810417     -170.953415      -58.223228
 C         -63.609592     -168.039917      -58.341457
 C         -64.993141     -170.085388      -58.589844
 C         -64.934212     -168.738617      -58.000648
 H         -61.549873     -168.470184      -58.225525
 H         -62.423641     -169.147171      -56.811481
 H         -63.796253     -171.935043      -58.597858
 H         -63.781384     -171.038498      -57.136440
 H         -63.708702     -167.948822      -59.421173
 H         -63.622105     -167.113815      -57.841946
 H         -65.918228     -170.622833      -58.262928
 H         -64.927498     -170.070374      -59.759869
 H         -65.716019     -168.198227      -58.446987
 H         -65.058083     -168.560089      -56.911652
