20
 generated by VMD
 C         -28.512140      -86.855370      -26.926905
 N         -27.541906      -87.111809      -26.343498
 H         -31.107075      -88.437210      -25.265884
 H         -29.249079      -86.586288      -27.570560
 C         -32.071583      -88.118431      -25.637495
 C         -33.205475      -88.161362      -24.715990
 C         -32.191376      -88.106606      -27.072342
 C         -34.475594      -87.712128      -25.265440
 C         -33.573811      -87.392143      -27.626604
 C         -34.674183      -87.955284      -26.776985
 H         -33.026871      -87.308311      -23.934896
 H         -33.334148      -89.202370      -24.291359
 H         -31.373793      -87.446823      -27.472221
 H         -32.200603      -89.068756      -27.547258
 H         -34.752747      -86.737350      -25.003614
 H         -35.315529      -88.179909      -24.718697
 H         -33.622223      -87.500404      -28.683460
 H         -33.361935      -86.277473      -27.449436
 H         -35.712238      -87.524223      -26.998627
 H         -34.692844      -89.149406      -27.006227
