20
 generated by VMD
 C         -62.892422     -173.556351      -55.588623
 N         -63.445881     -174.184845      -54.733459
 H         -61.563766     -171.712402      -58.670879
 H         -62.347939     -172.884369      -56.250462
 C         -62.476692     -171.172867      -58.763012
 C         -62.725113     -170.012024      -57.739986
 C         -63.811489     -171.800552      -59.110298
 C         -63.729610     -168.938187      -58.327934
 C         -64.869568     -170.751480      -59.651089
 C         -65.130577     -169.483490      -58.753929
 H         -61.768112     -169.624557      -57.439754
 H         -63.236088     -170.559875      -56.808819
 H         -63.545479     -172.468964      -59.909096
 H         -64.246483     -172.216507      -58.213428
 H         -63.218567     -168.596863      -59.294613
 H         -63.907993     -167.993103      -57.675846
 H         -65.805336     -171.222260      -59.839695
 H         -64.486618     -170.427719      -60.559460
 H         -65.728294     -168.697693      -59.343903
 H         -65.732765     -169.765305      -57.888699
