20
 generated by VMD
 C         -70.333549     -181.179352      -63.738628
 N         -70.979553     -182.057388      -63.318176
 H         -68.161705     -181.516037      -60.909000
 H         -69.743324     -180.431259      -64.219360
 C         -67.281166     -180.853851      -60.835968
 C         -65.909676     -181.487701      -60.511223
 C         -67.286186     -179.398209      -60.490116
 C         -64.710770     -180.591766      -60.698822
 C         -66.016563     -178.713837      -60.955025
 C         -64.813858     -179.162689      -60.223827
 H         -65.702347     -182.408081      -61.011391
 H         -65.818672     -182.000580      -59.545128
 H         -68.151840     -178.983017      -60.963497
 H         -67.489113     -179.483963      -59.360729
 H         -64.387611     -180.449524      -61.806667
 H         -63.891262     -181.155487      -60.137589
 H         -66.187691     -177.708649      -60.635483
 H         -65.982094     -178.713394      -62.045334
 H         -63.946594     -178.607498      -60.403561
 H         -65.021324     -179.142242      -59.075504
