20
 generated by VMD
 C         -29.326971      -73.427055      -19.314623
 N         -29.700460      -74.457794      -18.873943
 H         -25.651663      -73.051781      -18.860855
 H         -28.860050      -72.492760      -19.548090
 C         -25.442535      -72.876762      -19.901733
 C         -24.816858      -74.067413      -20.782526
 C         -25.647663      -71.469482      -20.474461
 C         -25.559538      -74.061005      -22.154894
 C         -26.277845      -71.473984      -21.753496
 C         -25.667637      -72.504898      -22.693850
 H         -24.991863      -74.954376      -20.138422
 H         -23.769497      -73.803780      -20.880611
 H         -26.199259      -70.897148      -19.704777
 H         -24.665232      -71.048592      -20.556921
 H         -26.577377      -74.449234      -22.027344
 H         -25.096573      -74.668182      -22.934380
 H         -26.195660      -70.469040      -22.307503
 H         -27.380884      -71.788612      -21.800777
 H         -26.124653      -72.596939      -23.686771
 H         -24.667290      -72.127609      -22.794367
