20
 generated by VMD
 C         -41.139156     -104.586540      -35.864292
 N         -42.095200     -104.928673      -36.446594
 H         -38.423717     -104.007301      -33.004654
 H         -40.175659     -104.415230      -35.363983
 C         -38.091850     -105.017502      -32.849686
 C         -36.894962     -105.417610      -32.125778
 C         -39.105282     -106.072807      -33.353340
 C         -37.093723     -106.665771      -31.132751
 C         -39.446705     -107.009109      -32.307098
 C         -38.115097     -107.721390      -31.701813
 H         -36.299911     -104.634659      -31.589870
 H         -36.219318     -105.773811      -33.030033
 H         -40.056034     -105.518318      -33.597256
 H         -38.802856     -106.488335      -34.277390
 H         -37.422306     -106.152344      -30.170002
 H         -36.230320     -107.199776      -30.751263
 H         -40.045746     -107.738350      -32.905285
 H         -40.000092     -106.462189      -31.472883
 H         -38.325550     -108.482407      -30.985008
 H         -37.606754     -108.199394      -32.597065
