20
 generated by VMD
 C         -11.740236      -41.676342       -6.154159
 N         -10.840642      -41.779266       -6.787911
 H         -14.613997      -41.416744       -8.400801
 H         -15.512051      -40.782749       -9.909714
 C         -15.253785      -41.613380       -9.287282
 C         -16.631569      -42.140942       -8.743885
 C         -14.620277      -42.742260      -10.107651
 C         -17.613592      -42.573811       -9.872461
 C         -15.523897      -43.081703      -11.311244
 C         -16.936169      -43.499523      -10.894938
 H         -17.089640      -41.373344       -8.174298
 H         -16.471111      -42.907330       -7.989943
 H         -13.648722      -42.521652      -10.529543
 H         -14.378589      -43.635578       -9.516135
 H         -18.027143      -41.616459      -10.275358
 H         -18.566015      -43.022316       -9.535598
 H         -15.060542      -43.883034      -11.914457
 H         -15.663037      -42.142189      -11.936913
 H         -17.558832      -43.518814      -11.803079
 H         -16.863316      -44.540993      -10.423276
