20
 generated by VMD
 C         -31.326296      -77.023918      -24.984472
 N         -32.099880      -77.058258      -25.828829
 H         -29.105740      -76.892838      -22.138849
 H         -30.971617      -77.015060      -24.052872
 C         -28.467627      -77.762154      -22.132183
 C         -27.504980      -78.027931      -23.226334
 C         -28.847843      -78.886177      -21.269232
 C         -26.209106      -78.622078      -22.596432
 C         -27.550568      -79.393715      -20.637190
 C         -26.571133      -79.782997      -21.668463
 H         -27.210064      -76.948036      -23.494583
 H         -27.870134      -78.772743      -24.017548
 H         -29.488115      -78.361618      -20.500790
 H         -29.370111      -79.641441      -21.924524
 H         -25.565020      -77.937340      -22.009514
 H         -25.516573      -78.813438      -23.463991
 H         -27.690863      -80.205818      -19.866838
 H         -26.965544      -78.598419      -20.048445
 H         -25.631241      -80.101036      -21.297346
 H         -26.936882      -80.662659      -22.303421
