20
 generated by VMD
 C         -67.325638     -177.782928      -57.435528
 N         -67.577354     -178.750412      -56.835171
 H         -64.266579     -176.173843      -59.045525
 H         -67.035507     -176.835251      -57.899712
 C         -64.412102     -175.302094      -59.684376
 C         -65.613930     -174.471649      -59.513161
 C         -63.157673     -174.751648      -60.414719
 C         -65.327042     -173.003143      -59.482826
 C         -62.955315     -173.318192      -60.197510
 C         -64.253975     -172.524109      -60.412300
 H         -66.239311     -174.856277      -58.625557
 H         -66.288918     -174.655212      -60.298508
 H         -62.340576     -175.390671      -59.976707
 H         -63.309017     -175.050385      -61.450027
 H         -65.125267     -172.727478      -58.450951
 H         -66.236641     -172.382309      -59.550766
 H         -62.408638     -172.777649      -60.906952
 H         -62.386681     -173.179703      -59.218666
 H         -64.148827     -171.432297      -60.643925
 H         -64.629761     -172.940613      -61.328964
