20
 generated by VMD
 C         -21.497120      -65.707809      -17.136055
 N         -20.900141      -66.070923      -16.236469
 H         -24.218166      -63.742382      -18.215994
 H         -22.045252      -65.031052      -17.809055
 C         -24.596401      -64.775299      -18.340303
 C         -24.483086      -65.235947      -19.751337
 C         -25.183968      -65.580162      -17.250916
 C         -24.310877      -66.682236      -19.987978
 C         -25.116644      -67.071503      -17.457800
 C         -25.052933      -67.533104      -18.910301
 H         -23.614851      -64.737000      -20.184050
 H         -25.310143      -65.009933      -20.325325
 H         -24.813845      -65.215736      -16.251263
 H         -26.272797      -65.242241      -17.299492
 H         -23.237347      -67.037720      -19.795616
 H         -24.605236      -67.015495      -21.018675
 H         -25.915442      -67.739792      -17.059399
 H         -24.197622      -67.429222      -16.972746
 H         -24.522512      -68.527840      -18.833782
 H         -26.073269      -67.661240      -19.172609
