20
 generated by VMD
 C          -7.563144      -23.536303        1.945343
 N          -7.579773      -23.027191        2.955876
 H          -9.273598      -23.410158       -1.650732
 H          -9.428535      -22.244617       -2.971255
 C          -8.696969      -22.862968       -2.380516
 C          -7.767636      -23.690886       -3.313578
 C          -7.822751      -21.757250       -1.676599
 C          -6.913026      -22.777506       -4.293279
 C          -7.026361      -20.855721       -2.602650
 C          -6.122568      -21.639473       -3.556278
 H          -8.229574      -24.533470       -3.934271
 H          -7.163261      -24.282278       -2.668525
 H          -8.503010      -21.162117       -1.028555
 H          -7.013817      -22.220917       -1.129811
 H          -7.605094      -22.276855       -5.028444
 H          -6.132293      -23.366474       -4.808053
 H          -6.347414      -20.208061       -2.015597
 H          -7.710688      -20.321136       -3.265274
 H          -5.730001      -20.935591       -4.286658
 H          -5.326982      -22.067137       -3.000839
