20
 generated by VMD
 C         -57.941307     -150.656570      -48.794128
 N         -58.008858     -151.798904      -48.637646
 H         -55.605904     -149.691269      -47.658482
 H         -57.890263     -149.583572      -48.878361
 C         -55.103432     -149.307953      -48.589779
 C         -54.367008     -150.260254      -49.503166
 C         -55.082329     -147.877167      -48.899605
 C         -54.166500     -149.794464      -50.987545
 C         -55.018673     -147.626709      -50.406033
 C         -53.826828     -148.348999      -51.044216
 H         -54.951511     -151.193558      -49.500011
 H         -53.327354     -150.444168      -49.073715
 H         -56.107021     -147.493362      -48.651394
 H         -54.254715     -147.414444      -48.382767
 H         -55.073143     -150.013947      -51.567722
 H         -53.326836     -150.251419      -51.481689
 H         -54.866261     -146.498306      -50.630272
 H         -55.992920     -147.635437      -50.746342
 H         -53.541317     -148.023972      -52.105450
 H         -52.915794     -148.142273      -50.455559
