20
 generated by VMD
 C         -67.479134     -189.632797      -66.728157
 N         -66.364388     -189.895874      -66.588676
 H         -70.049904     -190.825912      -65.671371
 H         -68.482811     -189.182724      -66.733208
 C         -70.887474     -190.289032      -65.150047
 C         -72.102646     -190.951523      -64.724998
 C         -70.446671     -189.071793      -64.325661
 C         -73.183235     -190.070633      -63.987217
 C         -71.605484     -188.110504      -63.987747
 C         -72.517471     -188.950027      -63.121319
 H         -71.825607     -191.673950      -63.914803
 H         -72.499641     -191.420746      -65.662392
 H         -70.135353     -189.483185      -63.388245
 H         -69.650497     -188.441315      -64.885605
 H         -73.698883     -190.782928      -63.356258
 H         -73.866928     -189.537872      -64.730064
 H         -72.083557     -187.698715      -64.936417
 H         -71.167732     -187.308868      -63.390530
 H         -72.066711     -189.307602      -62.221703
 H         -73.254845     -188.303513      -62.572758
