20
 generated by VMD
 C          -1.229746      -13.374883        0.791984
 N          -0.371081      -13.505467        0.102574
 H          -4.379478      -13.606510        2.026431
 H          -5.425304      -13.713970        0.525974
 C          -5.101428      -14.261846        1.468585
 C          -6.275629      -14.649411        2.338686
 C          -4.345822      -15.501154        1.135066
 C          -7.255809      -15.588966        1.619907
 C          -5.286170      -16.496597        0.352910
 C          -6.583179      -16.817705        1.168733
 H          -6.889026      -13.804680        2.617226
 H          -5.998821      -15.039125        3.308340
 H          -3.465532      -15.324547        0.557602
 H          -3.929019      -15.914168        1.972433
 H          -7.614521      -14.987835        0.737102
 H          -8.187335      -15.796057        2.212291
 H          -4.785707      -17.488430        0.118681
 H          -5.584102      -16.124128       -0.645198
 H          -7.255321      -17.531870        0.655186
 H          -6.269563      -17.395517        2.075928
