20
 generated by VMD
 C         -10.428699      -33.166733       -8.924609
 N         -11.257849      -33.721100       -9.376052
 H         -12.938109      -33.862614       -6.260432
 H         -13.149803      -34.516586       -4.638894
 C         -13.007767      -34.789452       -5.662275
 C         -11.655283      -35.475601       -5.927463
 C         -14.161487      -35.732761       -6.112978
 C         -11.624095      -36.945015       -5.535312
 C         -14.041419      -37.181168       -5.729105
 C         -12.747561      -37.775494       -6.193381
 H         -10.892199      -34.911369       -5.407546
 H         -11.411298      -35.331524       -6.997091
 H         -15.090991      -35.244038       -5.780946
 H         -14.189424      -35.726299       -7.204865
 H         -11.613984      -37.136463       -4.420946
 H         -10.675771      -37.431496       -5.838553
 H         -14.838795      -37.700249       -6.364923
 H         -14.285513      -37.380287       -4.724248
 H         -12.617076      -38.800182       -5.995765
 H         -12.709375      -37.593452       -7.280255
