20
 generated by VMD
 C         -61.567348     -155.804321      -53.694756
 N         -61.644352     -155.002823      -54.588200
 H         -58.597137     -155.254929      -52.037228
 H         -61.458763     -156.376434      -52.742229
 C         -57.613926     -155.112198      -51.624596
 C         -57.346981     -154.394608      -50.300594
 C         -56.440483     -155.237854      -52.509579
 C         -56.111671     -154.942642      -49.463631
 C         -55.249878     -155.673431      -51.725632
 C         -54.902737     -154.876617      -50.454426
 H         -58.246117     -154.539307      -49.636452
 H         -57.240440     -153.317413      -50.457035
 H         -56.498093     -156.063034      -53.318470
 H         -56.412106     -154.256760      -53.032631
 H         -56.268185     -155.917206      -49.105820
 H         -55.872211     -154.180542      -48.690243
 H         -54.317097     -155.485245      -52.365681
 H         -55.361725     -156.686859      -51.470421
 H         -53.909538     -155.349915      -50.144306
 H         -54.676338     -153.839859      -50.709896
