20
 generated by VMD
 C         -29.916973      -73.997047      -20.553402
 N         -29.943083      -75.130074      -20.311623
 H         -26.768997      -74.406883      -19.118471
 H         -29.689251      -73.018227      -21.156137
 C         -26.535116      -74.256767      -20.150047
 C         -26.048311      -75.391090      -20.969435
 C         -26.058617      -72.836647      -20.373425
 C         -26.041780      -75.124542      -22.445919
 C         -25.967512      -72.553314      -21.911310
 C         -25.329735      -73.721855      -22.592907
 H         -26.600307      -76.429489      -20.673090
 H         -25.041809      -75.611443      -20.616659
 H         -26.617777      -72.095825      -19.790026
 H         -24.965012      -72.713089      -19.975199
 H         -27.068636      -75.150253      -22.816233
 H         -25.469574      -75.834763      -23.036665
 H         -25.315804      -71.590134      -22.109304
 H         -27.055994      -72.442558      -22.143675
 H         -25.232061      -73.572784      -23.632511
 H         -24.296429      -73.726509      -22.221119
