20
 generated by VMD
 C         -12.087687      -25.395607       -0.460294
 N         -12.928188      -25.938433        0.060786
 H          -8.964271      -26.823265       -2.194865
 H          -9.327068      -25.895947       -3.643527
 C          -8.551534      -26.231915       -3.000228
 C          -7.479508      -26.996935       -3.821763
 C          -7.867469      -24.998638       -2.418209
 C          -6.899151      -26.153048       -4.964701
 C          -7.312327      -24.143175       -3.584530
 C          -6.255384      -24.990492       -4.315900
 H          -7.909527      -27.884291       -4.341532
 H          -6.775911      -27.454487       -3.223501
 H          -8.553213      -24.412041       -1.816289
 H          -7.048476      -25.224993       -1.698452
 H          -7.600534      -25.885532       -5.743923
 H          -6.157107      -26.775587       -5.431796
 H          -6.812405      -23.230133       -3.224647
 H          -8.121414      -23.925455       -4.305815
 H          -5.895060      -24.354712       -5.136053
 H          -5.453524      -25.200377       -3.568531
