20
 generated by VMD
 C         -27.993225      -82.476456      -27.032961
 N         -27.240463      -83.304085      -26.833006
 H         -31.246725      -84.415054      -26.724407
 H         -28.752682      -81.643234      -27.285248
 C         -31.777197      -84.861740      -25.821226
 C         -31.341469      -84.757759      -24.391771
 C         -32.168613      -86.226982      -26.245565
 C         -32.278263      -85.444366      -23.352179
 C         -33.236301      -86.840187      -25.263601
 C         -32.623203      -86.929985      -23.862282
 H         -31.502613      -83.743683      -24.104038
 H         -30.296257      -84.904137      -24.298109
 H         -32.686546      -86.014557      -27.157677
 H         -31.304688      -86.953812      -26.382280
 H         -33.172302      -84.729851      -23.224369
 H         -31.839251      -85.534401      -22.383644
 H         -33.479488      -87.854469      -25.628214
 H         -34.143955      -86.200493      -25.371555
 H         -33.159756      -87.402512      -23.062094
 H         -31.543205      -87.271210      -23.934006
