20
 generated by VMD
 C          -6.214587      -22.305553        1.922891
 N          -6.426074      -22.951483        2.789557
 H          -5.384440      -19.546255       -0.728367
 H          -6.844248      -20.525557       -0.197570
 C          -6.286303      -20.096642       -1.058380
 C          -5.799895      -21.238214       -1.933493
 C          -7.163643      -19.092653       -1.843052
 C          -6.917359      -21.968418       -2.638255
 C          -8.332843      -19.869944       -2.491893
 C          -7.834893      -21.020451       -3.349936
 H          -5.136897      -21.936802       -1.369254
 H          -5.096191      -20.913256       -2.707671
 H          -7.617701      -18.348719       -1.237400
 H          -6.558064      -18.620766       -2.615956
 H          -7.519338      -22.488951       -1.903156
 H          -6.494492      -22.646276       -3.365178
 H          -8.820876      -19.207214       -3.215662
 H          -8.956926      -20.154600       -1.638420
 H          -8.674591      -21.605501       -3.693093
 H          -7.431984      -20.651369       -4.274503
