20
 generated by VMD
 C         -56.312599     -150.013428      -47.717606
 N         -57.467808     -150.309494      -47.529957
 H         -53.022507     -147.856186      -47.467243
 H         -55.300030     -149.686523      -47.928593
 C         -53.503704     -147.716110      -48.364994
 C         -53.158611     -148.550262      -49.557327
 C         -54.518673     -146.592194      -48.512566
 C         -54.225399     -148.570465      -50.722939
 C         -55.561653     -146.735611      -49.716022
 C         -54.951443     -147.279221      -50.979393
 H         -52.912735     -149.455734      -49.091724
 H         -52.138706     -148.169525      -49.909454
 H         -55.102539     -146.439194      -47.678982
 H         -54.025093     -145.622849      -48.483597
 H         -54.824726     -149.447433      -50.562229
 H         -53.674473     -148.747482      -51.645992
 H         -55.927021     -145.700745      -49.959076
 H         -56.541931     -147.227432      -49.376881
 H         -55.687828     -147.445602      -51.730900
 H         -54.194893     -146.559723      -51.324169
