20
 generated by VMD
 C         -38.752449     -111.834290      -35.898617
 N         -38.473392     -111.240578      -36.886494
 H         -40.665981     -115.022484      -34.982811
 H         -39.133984     -112.364891      -35.035015
 C         -41.511486     -114.396301      -35.324127
 C         -41.767906     -114.360519      -36.822582
 C         -42.241867     -113.300240      -34.569294
 C         -43.275673     -114.479607      -37.087749
 C         -43.730961     -113.221718      -34.796803
 C         -43.950230     -113.192032      -36.314297
 H         -41.264114     -115.174156      -37.231285
 H         -41.336430     -113.395439      -37.085663
 H         -42.120434     -113.539032      -33.502697
 H         -41.641994     -112.402107      -34.809986
 H         -43.688343     -115.348701      -36.702583
 H         -43.619259     -114.359856      -38.132393
 H         -43.909889     -112.238022      -34.308289
 H         -44.207584     -114.168480      -34.402790
 H         -45.035282     -113.122902      -36.546673
 H         -43.482845     -112.411774      -36.845230
