20
 generated by VMD
 C         -56.298748     -150.010986      -46.691780
 N         -56.948437     -150.510513      -45.863911
 H         -53.208202     -147.771103      -47.691360
 H         -55.610287     -149.483978      -47.391510
 C         -53.707878     -147.483948      -48.636436
 C         -52.976585     -147.854919      -49.862850
 C         -54.596474     -146.145248      -48.590405
 C         -53.915863     -147.637222      -50.990986
 C         -55.373177     -146.052643      -49.859993
 C         -54.495209     -146.334579      -51.081558
 H         -52.484657     -148.896210      -49.975662
 H         -52.084541     -147.273895      -50.010033
 H         -55.190128     -146.064590      -47.663723
 H         -53.963024     -145.353409      -48.347393
 H         -54.707249     -148.431931      -50.994053
 H         -53.310425     -147.860764      -51.957283
 H         -55.638264     -144.927689      -49.886375
 H         -56.262646     -146.705276      -49.926113
 H         -55.100548     -146.102203      -51.968567
 H         -53.690819     -145.599716      -51.146336
