20
 generated by VMD
 C         -12.832481      -27.108551       -2.397168
 N         -12.057922      -27.629541       -1.800201
 H         -10.418778      -26.323238       -4.422294
 H          -8.964295      -26.049162       -5.393840
 C          -9.329175      -26.503187       -4.506275
 C          -9.037905      -27.998730       -4.389785
 C          -8.776010      -25.741695       -3.247247
 C          -7.543095      -28.167725       -4.395626
 C          -7.286323      -25.929829       -3.181055
 C          -6.930321      -27.442070       -3.194740
 H          -9.458383      -28.409084       -5.371664
 H          -9.445844      -28.421452       -3.491577
 H          -8.989704      -24.658316       -3.341979
 H          -9.289345      -26.098272       -2.366553
 H          -7.090582      -27.720299       -5.347661
 H          -7.350699      -29.281342       -4.290557
 H          -6.881626      -25.586569       -2.217186
 H          -6.767065      -25.486242       -4.027844
 H          -5.833911      -27.558681       -3.188606
 H          -7.298740      -27.802004       -2.250756
