20
 generated by VMD
 C         -10.688195      -37.345287       -8.175698
 N         -10.505560      -36.694145       -7.269039
 H         -12.841267      -39.235455       -7.953292
 H         -14.166527      -39.349419       -6.790905
 C         -13.854357      -39.669762       -7.829113
 C         -13.724753      -41.192833       -7.874627
 C         -14.756131      -39.144337       -8.931780
 C         -15.103090      -41.719803       -7.566125
 C         -16.132280      -39.796867       -8.931039
 C         -16.067377      -41.314476       -8.706157
 H         -12.972018      -41.440018       -7.086164
 H         -13.414385      -41.450314       -8.931632
 H         -14.854995      -38.077133       -8.738807
 H         -14.272067      -39.378269       -9.904898
 H         -15.562729      -41.232460       -6.682664
 H         -15.034368      -42.793072       -7.489218
 H         -16.734484      -39.601566       -9.867785
 H         -16.751053      -39.457134       -8.120150
 H         -17.103968      -41.579678       -8.388547
 H         -15.898566      -41.816925       -9.702909
