20
 generated by VMD
 C         -18.114185      -48.560101       -7.360632
 N         -18.593077      -49.039528       -6.467833
 H         -16.220646      -48.114338      -10.163087
 H         -15.959369      -49.089561      -11.570158
 C         -16.272247      -48.107281      -11.246167
 C         -15.352365      -47.023628      -11.818092
 C         -17.652380      -47.678265      -11.689394
 C         -15.297873      -47.114029      -13.355289
 C         -17.809311      -47.365753      -13.185231
 C         -16.634388      -46.567577      -13.822447
 H         -14.395616      -47.432384      -11.403868
 H         -15.656990      -46.002537      -11.479977
 H         -18.380003      -48.446842      -11.394174
 H         -17.925837      -46.735905      -11.137355
 H         -15.131756      -48.141857      -13.724513
 H         -14.480346      -46.516449      -13.752558
 H         -18.845791      -46.915855      -13.391859
 H         -17.838953      -48.301083      -13.780255
 H         -16.713387      -46.578022      -14.887424
 H         -16.684547      -45.506226      -13.588121
