20
 generated by VMD
 C         -29.685860      -88.084869      -25.580742
 N         -29.166269      -89.019501      -25.165783
 H         -31.413504      -90.421005      -27.612478
 H         -30.028631      -87.076172      -25.990574
 C         -32.292477      -89.809769      -27.492785
 C         -32.926117      -89.802116      -26.160240
 C         -33.325333      -89.428719      -28.644962
 C         -33.695793      -88.576248      -25.775846
 C         -34.182617      -88.248283      -28.324436
 C         -34.680241      -88.068398      -26.808228
 H         -32.079319      -89.950005      -25.499199
 H         -33.719078      -90.612534      -26.146698
 H         -32.805313      -89.303917      -29.620684
 H         -33.813747      -90.348343      -28.722124
 H         -32.893715      -87.711220      -25.607038
 H         -34.005367      -88.782181      -24.762390
 H         -34.991474      -88.221275      -29.060898
 H         -33.657070      -87.323257      -28.552593
 H         -34.762592      -87.001633      -26.553253
 H         -35.507904      -88.712807      -26.687132
