20
 generated by VMD
 C         -22.375425      -68.326172      -16.636786
 N         -22.191347      -68.623734      -15.537931
 H         -24.020382      -66.291130      -18.310699
 H         -22.733383      -68.112778      -17.637285
 C         -24.721020      -66.438896      -19.129475
 C         -23.907457      -67.149704      -20.217445
 C         -26.090427      -66.730293      -18.982750
 C         -24.498480      -68.672653      -20.222883
 C         -26.668381      -68.075981      -19.219002
 C         -26.003010      -68.778008      -20.377493
 H         -22.828560      -67.099335      -19.955162
 H         -24.174877      -66.695831      -21.071888
 H         -26.467007      -66.465805      -17.944809
 H         -26.708235      -66.067070      -19.732866
 H         -24.131187      -69.277313      -19.351934
 H         -23.984510      -68.990601      -21.146070
 H         -27.763947      -68.068474      -19.414539
 H         -26.557310      -68.802956      -18.399796
 H         -26.220757      -69.863861      -20.450436
 H         -26.346516      -68.214912      -21.242933
