20
 generated by VMD
 C         -13.499520      -30.630810       -8.354468
 N         -13.439199      -30.077467       -9.300701
 H         -11.108562      -31.560455       -5.676191
 H         -11.292762      -31.843977       -3.881010
 C         -11.006505      -32.317734       -4.892440
 C          -9.534689      -32.823437       -4.949159
 C         -11.943628      -33.436352       -5.243783
 C          -9.483276      -34.069397       -3.976723
 C         -11.927145      -34.620571       -4.308792
 C         -10.481510      -35.168518       -4.375861
 H          -8.826843      -32.097549       -4.501603
 H          -9.212371      -33.185249       -5.934202
 H         -12.916313      -32.969383       -5.076070
 H         -11.826529      -33.714993       -6.304267
 H          -9.772437      -33.692291       -2.987420
 H          -8.493513      -34.537903       -4.010118
 H         -12.605010      -35.349045       -4.632663
 H         -12.152954      -34.234642       -3.282669
 H         -10.472840      -35.974262       -3.675886
 H         -10.196973      -35.628166       -5.355189
