20
 generated by VMD
 C         -29.939972      -91.867004      -25.526815
 N         -29.095772      -92.268196      -24.805468
 H         -33.164867      -89.704819      -26.361643
 H         -30.810314      -91.646637      -26.186029
 C         -33.308437      -90.183113      -27.359592
 C         -34.116180      -91.495102      -27.322557
 C         -33.266350      -89.457085      -28.698414
 C         -35.487431      -91.071884      -27.646526
 C         -34.647343      -89.085419      -29.049982
 C         -35.538925      -90.321655      -28.953739
 H         -34.236416      -92.120735      -26.450190
 H         -33.836220      -92.129700      -28.115307
 H         -32.567558      -88.577782      -28.513529
 H         -32.795132      -90.209633      -29.365328
 H         -35.838856      -90.347702      -26.927107
 H         -36.215054      -91.982925      -27.604897
 H         -34.712864      -88.527687      -30.026352
 H         -34.948322      -88.276253      -28.376431
 H         -36.534298      -90.072777      -29.282566
 H         -35.192902      -90.981033      -29.710846
