20
 generated by VMD
 C         -79.464668     -208.935135      -76.433342
 N         -79.060120     -209.984604      -76.818291
 H         -77.458008     -209.677017      -73.280769
 H         -79.816917     -207.994263      -76.162567
 C         -77.950050     -210.218338      -72.452209
 C         -77.062614     -210.688889      -71.403023
 C         -79.136246     -211.037598      -72.891220
 C         -77.763268     -211.269882      -70.151291
 C         -79.838112     -211.737717      -71.710312
 C         -78.651367     -212.387192      -70.779305
 H         -76.362740     -209.921967      -71.141434
 H         -76.487717     -211.473679      -71.863380
 H         -79.725967     -210.357361      -73.573158
 H         -78.777931     -211.902985      -73.553238
 H         -78.427414     -210.584305      -69.601166
 H         -77.100777     -211.642319      -69.378868
 H         -80.414604     -212.516617      -72.103424
 H         -80.471497     -210.892426      -71.147224
 H         -79.204041     -212.693619      -69.895699
 H         -78.215088     -213.256744      -71.288864
