20
 generated by VMD
 C          -1.876044      -16.135502        2.033923
 N          -1.828584      -15.302727        2.773417
 H          -4.125697      -16.081282        0.162008
 H          -4.483680      -17.134718       -1.141173
 C          -4.963687      -16.677483       -0.244734
 C          -6.140300      -15.780771       -0.661311
 C          -5.332070      -17.767879        0.744176
 C          -7.404476      -16.585518       -0.982894
 C          -6.492656      -18.584362        0.201343
 C          -7.755788      -17.621641        0.079414
 H          -5.843743      -15.187561       -1.511136
 H          -6.354921      -15.049973        0.136919
 H          -4.523904      -18.338196        0.955389
 H          -5.521431      -17.330463        1.660644
 H          -7.178530      -17.069622       -1.979843
 H          -8.290648      -15.879262       -1.093173
 H          -6.790953      -19.370882        0.925079
 H          -6.275454      -19.050474       -0.782603
 H          -8.649158      -18.201231       -0.183523
 H          -7.951329      -17.078363        1.009297
