20
 generated by VMD
 C         -28.830162      -88.259460      -25.496628
 N         -28.698437      -87.329010      -26.215445
 H         -31.201860      -89.504005      -26.977114
 H         -29.150446      -88.981667      -24.855167
 C         -32.207504      -89.132912      -26.819382
 C         -32.887154      -89.069893      -25.580290
 C         -32.898670      -89.147530      -28.087690
 C         -33.918816      -87.885712      -25.447329
 C         -33.971657      -87.878395      -27.983290
 C         -34.827774      -87.922127      -26.737741
 H         -32.123646      -88.975540      -24.737671
 H         -33.463409      -89.960999      -25.409126
 H         -32.230770      -89.063385      -28.956614
 H         -33.613956      -89.978867      -28.218061
 H         -33.432579      -86.883392      -25.354168
 H         -34.479862      -88.132965      -24.456707
 H         -34.537533      -87.931206      -28.868744
 H         -33.424156      -86.956490      -27.991688
 H         -35.505180      -87.019020      -26.655392
 H         -35.499863      -88.829048      -26.794800
