20
 generated by VMD
 C         -28.325008      -86.375237      -26.359093
 N         -27.787041      -87.259087      -26.873566
 H         -30.934521      -87.195114      -25.366209
 H         -28.933977      -85.498909      -26.032606
 C         -31.962812      -87.364639      -25.626064
 C         -32.939537      -87.970596      -24.659935
 C         -32.132423      -87.789597      -27.006317
 C         -34.333443      -87.622002      -25.173275
 C         -33.546497      -87.546799      -27.484398
 C         -34.667099      -87.994064      -26.628845
 H         -32.924496      -87.619774      -23.601406
 H         -32.768539      -89.048523      -24.697193
 H         -31.362362      -87.282196      -27.673649
 H         -31.929871      -88.847412      -26.912235
 H         -34.491932      -86.513939      -25.054514
 H         -35.245316      -87.999222      -24.587095
 H         -33.726715      -88.062141      -28.396633
 H         -33.741249      -86.459305      -27.743443
 H         -35.521858      -87.440720      -27.058294
 H         -34.730610      -89.002235      -26.842468
