20
 generated by VMD
 C         -30.487253      -74.228699      -20.880041
 N         -30.395405      -75.331573      -20.501276
 H         -27.334410      -74.524979      -19.451124
 H         -30.527437      -73.421928      -21.597954
 C         -26.626398      -74.515289      -20.241884
 C         -26.227631      -75.749428      -21.020273
 C         -25.937141      -73.157166      -20.388369
 C         -25.998484      -75.287308      -22.597612
 C         -25.730198      -72.839577      -21.842113
 C         -25.195364      -74.005272      -22.602850
 H         -27.009501      -76.592636      -21.073914
 H         -25.198771      -76.088707      -20.654432
 H         -26.556131      -72.376022      -19.922426
 H         -25.079710      -73.346077      -19.831175
 H         -26.994308      -75.051292      -23.019594
 H         -25.587002      -76.096863      -23.213379
 H         -25.033361      -71.989380      -21.941689
 H         -26.735559      -72.452759      -22.206388
 H         -24.805504      -73.831337      -23.633247
 H         -24.222900      -74.132118      -22.102531
