20
 generated by VMD
 C          -1.985966      -17.722002        2.121552
 N          -1.638225      -17.074892        2.958607
 H          -5.252296      -17.607862        0.952565
 H          -5.179600      -18.771240       -0.276869
 C          -5.831894      -18.040623        0.148723
 C          -6.120670      -16.972111       -0.992187
 C          -7.017678      -18.878267        0.532875
 C          -6.872507      -17.705919       -2.124279
 C          -7.776245      -19.455061       -0.641359
 C          -8.156566      -18.375031       -1.664585
 H          -5.180212      -16.438480       -1.301668
 H          -6.780590      -16.201847       -0.525477
 H          -6.797138      -19.766874        1.231110
 H          -7.783490      -18.273806        1.076727
 H          -6.251064      -18.440693       -2.642212
 H          -7.142989      -17.053875       -2.939090
 H          -8.678649      -19.972162       -0.278445
 H          -7.204759      -20.229282       -1.125674
 H          -8.700391      -18.798153       -2.502120
 H          -8.827657      -17.592293       -1.270499
