20
 generated by VMD
 C         -10.825940      -33.281261       -8.609307
 N         -11.549999      -33.401829       -9.433070
 H         -12.802392      -33.672680       -6.025594
 H         -12.872631      -34.637459       -4.532301
 C         -12.761591      -34.679428       -5.619000
 C         -11.393960      -35.356888       -5.979957
 C         -13.905571      -35.482548       -6.298030
 C         -11.477695      -36.811031       -5.408506
 C         -13.931650      -36.899551       -5.790599
 C         -12.689341      -37.728100       -5.892119
 H         -10.569169      -34.829140       -5.511976
 H         -11.334442      -35.353031       -7.037177
 H         -14.786436      -34.954983       -5.960847
 H         -13.765267      -35.352882       -7.395813
 H         -11.499474      -36.791008       -4.350218
 H         -10.590011      -37.348591       -5.744409
 H         -14.695687      -37.423264       -6.314692
 H         -14.245657      -36.835636       -4.745423
 H         -12.749466      -38.700378       -5.309596
 H         -12.483768      -37.980564       -6.942083
