20
 generated by VMD
 C         -27.571726      -84.560158      -26.221022
 N         -28.113522      -85.194611      -27.005436
 H         -31.262039      -84.723015      -26.097717
 H         -26.935694      -84.051651      -25.500561
 C         -31.954268      -85.475792      -25.818794
 C         -32.033665      -85.958290      -24.431025
 C         -32.082870      -86.493797      -26.835854
 C         -33.371998      -86.643936      -24.121719
 C         -33.401035      -87.422447      -26.586359
 C         -33.498085      -87.899872      -25.084536
 H         -31.867474      -85.075974      -23.674093
 H         -31.270498      -86.770386      -24.232447
 H         -32.017773      -85.999916      -27.818880
 H         -31.143450      -87.187820      -26.767496
 H         -34.141430      -85.946663      -24.395430
 H         -33.358139      -86.867165      -23.106453
 H         -33.338486      -88.168564      -27.303036
 H         -34.298416      -86.815201      -26.846764
 H         -34.433826      -88.463928      -24.966049
 H         -32.797703      -88.543190      -24.720207
