20
 generated by VMD
 C         -74.841812     -201.794937      -66.265358
 N         -74.072334     -201.065613      -65.779739
 H         -76.061432     -199.273117      -68.329857
 H         -75.594421     -202.492569      -66.691574
 C         -75.294174     -198.698944      -68.776070
 C         -75.024483     -197.313095      -68.247604
 C         -74.507767     -199.096481      -70.015648
 C         -73.527641     -196.989441      -68.125565
 C         -73.184227     -198.340210      -70.183937
 C         -72.512665     -197.949829      -68.836899
 H         -75.570755     -197.128342      -67.318481
 H         -75.497673     -196.514923      -68.949463
 H         -74.228447     -200.106812      -69.832924
 H         -75.140549     -198.927841      -70.887405
 H         -73.301552     -196.909302      -67.038795
 H         -73.449722     -195.968170      -68.604004
 H         -73.338448     -197.473495      -70.818901
 H         -72.460136     -198.883179      -70.803085
 H         -72.249596     -198.739212      -68.177200
 H         -71.477402     -197.533371      -69.193703
