20
 generated by VMD
 C         -12.022065      -25.532095       -0.330619
 N         -12.983241      -26.038782       -0.113028
 H          -9.172426      -26.860701       -2.458107
 H          -9.451889      -25.806482       -3.816741
 C          -8.713323      -26.257755       -3.192161
 C          -7.707801      -27.114269       -3.922844
 C          -8.089675      -25.021868       -2.574710
 C          -6.741799      -26.372538       -4.862318
 C          -7.192724      -24.235620       -3.483772
 C          -6.214839      -25.059805       -4.318345
 H          -8.116179      -27.988930       -4.448505
 H          -7.147140      -27.644541       -3.182386
 H          -8.829887      -24.343767       -2.078220
 H          -7.478081      -25.300026       -1.729892
 H          -7.356433      -26.179222       -5.742076
 H          -5.966917      -27.012268       -5.256525
 H          -6.583311      -23.560743       -2.895466
 H          -7.805401      -23.670290       -4.191215
 H          -5.745607      -24.385136       -5.076932
 H          -5.444903      -25.284269       -3.589690
