20
 generated by VMD
 C         -12.758226      -27.965002       -5.760389
 N         -13.085728      -28.531761       -6.661440
 H         -12.029847      -31.674372       -4.741509
 H         -11.191147      -30.264536       -5.172283
 C         -11.071053      -31.208487       -4.659429
 C          -9.989251      -32.036613       -5.356252
 C         -10.744203      -30.943256       -3.230444
 C          -8.593713      -31.215288       -5.268374
 C          -9.367741      -30.328991       -2.995658
 C          -8.270210      -31.130362       -3.757503
 H         -10.069724      -32.203762       -6.468858
 H          -9.881521      -33.030792       -4.930419
 H         -11.528894      -30.283476       -2.825620
 H         -10.819849      -31.895063       -2.617931
 H          -8.772467      -30.201805       -5.686692
 H          -7.766310      -31.656862       -5.861410
 H          -9.222590      -30.279158       -1.867751
 H          -9.351912      -29.308363       -3.337340
 H          -7.319059      -30.695621       -3.654438
 H          -8.159500      -32.117020       -3.308382
