20
 generated by VMD
 C         -39.351521     -107.783104      -37.818707
 N         -39.037182     -106.656860      -37.855911
 H         -39.399216     -108.179001      -34.378822
 H         -39.701458     -108.729950      -37.427105
 C         -39.993500     -109.016022      -34.150410
 C         -39.266182     -110.404999      -33.963219
 C         -41.616783     -109.163116      -34.178825
 C         -39.738724     -110.985329      -32.695473
 C         -42.023418     -109.945381      -32.915047
 C         -41.222996     -111.221649      -32.759071
 H         -38.226318     -110.215561      -34.240635
 H         -39.539082     -110.969719      -34.849846
 H         -42.169193     -108.294670      -34.408920
 H         -41.849415     -109.870949      -34.995655
 H         -39.375946     -110.401772      -31.822277
 H         -39.250385     -112.082748      -32.540230
 H         -43.091782     -110.208763      -33.105183
 H         -41.781429     -109.415405      -32.038536
 H         -41.552155     -111.770134      -31.811205
 H         -41.438881     -111.866341      -33.498432
