20
 generated by VMD
 C         -58.563046     -161.956757      -56.517536
 N         -57.659908     -161.375748      -56.188580
 H         -59.524052     -164.835144      -55.236576
 H         -59.449078     -162.492218      -56.716370
 C         -60.294353     -164.209000      -54.980564
 C         -60.041679     -163.547211      -53.608143
 C         -61.719612     -164.516754      -55.359364
 C         -61.027714     -162.588806      -53.100609
 C         -62.475403     -163.197388      -55.021252
 C         -62.457134     -162.887543      -53.480816
 H         -59.074764     -162.997055      -53.737709
 H         -59.913204     -164.324478      -52.820724
 H         -61.733982     -164.571487      -56.487446
 H         -62.164688     -165.381729      -54.833088
 H         -60.900219     -161.564438      -53.521873
 H         -60.969872     -162.590622      -51.984409
 H         -63.617344     -163.329376      -55.317570
 H         -62.166618     -162.357315      -55.640072
 H         -63.195076     -162.132660      -53.260746
 H         -62.777718     -163.886429      -53.067196
