20
 generated by VMD
 C         -40.691437     -100.079628      -29.779137
 N         -40.382023     -100.237968      -28.655119
 H         -37.327499     -100.011360      -30.630220
 H         -41.085155      -99.880875      -30.736689
 C         -36.427422      -99.478546      -30.810484
 C         -35.990929      -99.434494      -32.210274
 C         -35.418972      -99.382706      -29.766417
 C         -34.823845      -98.465378      -32.509380
 C         -34.219196      -98.340508      -29.969967
 C         -33.779663      -98.255974      -31.414684
 H         -36.895180      -99.364655      -32.759506
 H         -35.539253     -100.411774      -32.562733
 H         -35.873611      -99.012344      -28.869923
 H         -35.120983     -100.466278      -29.504717
 H         -35.399147      -97.502380      -32.595901
 H         -34.371300      -98.665863      -33.465252
 H         -33.413830      -98.613800      -29.290819
 H         -34.394154      -97.278923      -29.498358
 H         -33.052483      -97.395981      -31.619133
 H         -33.189999      -99.139580      -31.525682
