20
 generated by VMD
 C         -22.534956      -55.566788      -16.537567
 N         -23.128471      -54.511955      -16.525541
 H         -19.434076      -55.619415      -15.325278
 H         -22.402800      -56.617172      -16.250423
 C         -19.689840      -56.588352      -14.808809
 C         -20.681385      -56.762859      -13.739966
 C         -18.763384      -57.552959      -15.268025
 C         -20.976053      -58.188824      -13.412139
 C         -18.946941      -58.981369      -14.720247
 C         -19.751329      -59.071789      -13.393710
 H         -21.626490      -56.307388      -14.015138
 H         -20.391775      -56.191761      -12.888435
 H         -18.733479      -57.536015      -16.322388
 H         -17.741199      -57.264675      -14.926705
 H         -21.732576      -58.475246      -14.162502
 H         -21.474010      -58.151375      -12.421707
 H         -17.956808      -59.440517      -14.489754
 H         -19.363474      -59.684265      -15.502102
 H         -19.970387      -60.147240      -13.331439
 H         -19.097759      -58.826004      -12.528090
