20
 generated by VMD
 C         -40.657825     -104.065956      -36.850166
 N         -40.021473     -104.945717      -36.496666
 H         -40.050262     -106.875450      -34.752697
 H         -41.206860     -103.291588      -37.411980
 C         -39.817501     -107.154732      -33.717850
 C         -38.472069     -106.669426      -33.211285
 C         -39.962650     -108.679703      -33.520466
 C         -38.229858     -106.912689      -31.754187
 C         -39.686588     -108.997604      -32.007744
 C         -38.328362     -108.461472      -31.435389
 H         -38.479759     -105.637230      -33.434284
 H         -37.599392     -107.190903      -33.622871
 H         -40.924416     -108.972473      -33.919205
 H         -39.181076     -109.298462      -34.006138
 H         -39.014614     -106.336876      -31.231359
 H         -37.340561     -106.425346      -31.373184
 H         -39.579586     -110.045990      -31.897636
 H         -40.426804     -108.608086      -31.365320
 H         -38.394600     -108.575218      -30.401012
 H         -37.336910     -108.965256      -31.795931
