20
 generated by VMD
 C         -59.920738     -152.106644      -50.074085
 N         -58.820065     -152.593689      -50.135059
 H         -56.516644     -150.937271      -48.489517
 H         -60.998634     -151.784149      -49.963017
 C         -55.629288     -150.634354      -49.078053
 C         -54.792587     -151.639496      -49.684906
 C         -55.355606     -149.161713      -49.161171
 C         -54.406342     -151.234558      -51.107632
 C         -54.805004     -148.955353      -50.575161
 C         -53.766834     -149.821930      -51.097687
 H         -55.492367     -152.515701      -49.736481
 H         -53.966305     -152.028351      -49.178993
 H         -56.312927     -148.721359      -49.103001
 H         -54.675312     -148.816437      -48.351013
 H         -55.148331     -151.243683      -51.910210
 H         -53.642708     -151.950806      -51.475651
 H         -54.535763     -147.981232      -50.597233
 H         -55.772938     -149.084198      -51.192104
 H         -53.502506     -149.504501      -52.094807
 H         -52.835678     -149.830154      -50.343685
