20
 generated by VMD
 C         -73.896851     -201.510910      -65.525116
 N         -72.931976     -200.979874      -65.923225
 H         -75.124321     -198.254578      -67.077347
 H         -74.780289     -201.693542      -64.982201
 C         -75.047768     -197.723862      -68.013199
 C         -74.862465     -196.278748      -68.000214
 C         -74.420547     -198.579971      -69.098969
 C         -73.460732     -195.734070      -68.435478
 C         -73.491318     -197.828354      -69.990150
 C         -72.628639     -196.827499      -69.115410
 H         -75.271294     -196.014587      -66.920364
 H         -75.565918     -195.746002      -68.580162
 H         -73.983833     -199.465698      -68.564949
 H         -75.287155     -199.068558      -69.681694
 H         -72.798660     -195.324478      -67.653023
 H         -73.609138     -194.931686      -69.157806
 H         -74.046059     -197.199173      -70.680786
 H         -72.824402     -198.634918      -70.471054
 H         -72.179146     -197.353867      -68.369781
 H         -71.790222     -196.332626      -69.740509
