20
 generated by VMD
 C         -12.440194      -27.610468       -4.625419
 N         -13.136347      -28.036957       -5.377107
 H         -10.872753      -30.608036       -2.940581
 H         -11.063221      -29.090723       -3.885051
 C         -10.341638      -29.869581       -3.426333
 C          -9.543725      -30.586926       -4.519861
 C          -9.289820      -29.254862       -2.422268
 C          -8.773231      -29.539003       -5.374733
 C          -8.365493      -28.237803       -3.166980
 C          -7.691775      -28.916002       -4.378699
 H         -10.189245      -31.051601       -5.204365
 H          -8.875054      -31.306747       -4.012200
 H          -9.838988      -28.701637       -1.590617
 H          -8.731009      -30.050867       -1.899926
 H          -9.494941      -28.802532       -5.644357
 H          -8.306602      -30.066233       -6.198265
 H          -7.560472      -27.863491       -2.527583
 H          -8.972925      -27.357378       -3.522729
 H          -7.041979      -28.130619       -4.882602
 H          -7.091416      -29.738707       -3.980473
