20
 generated by VMD
 C         -11.871128      -26.351936       -0.194597
 N         -12.790721      -26.292288       -0.845291
 H         -10.174612      -26.354317       -3.661466
 H          -9.287922      -25.760105       -5.019492
 C          -9.167096      -26.172234       -4.014885
 C          -8.271930      -27.372324       -4.162727
 C          -8.558378      -25.075296       -3.096438
 C          -6.866828      -26.919868       -4.617110
 C          -7.073935      -24.734478       -3.341415
 C          -6.193630      -25.937696       -3.673697
 H          -8.606783      -28.134087       -4.931435
 H          -8.131185      -27.814875       -3.138543
 H          -9.260801      -24.199694       -3.062915
 H          -8.525202      -25.511448       -2.119518
 H          -6.995683      -26.438787       -5.587137
 H          -6.294850      -27.833496       -4.646852
 H          -6.713368      -24.107899       -2.511167
 H          -7.016171      -24.167625       -4.271135
 H          -5.209044      -25.547121       -3.992779
 H          -6.127994      -26.393669       -2.682459
