20
 generated by VMD
 C         -37.839748      -98.695107      -27.469564
 N         -37.616974      -98.487991      -26.331163
 H         -36.739342      -96.405586      -29.577755
 H         -38.079079      -98.988480      -28.426846
 C         -35.727303      -96.716820      -29.734900
 C         -35.389244      -97.348442      -31.042561
 C         -34.772919      -95.778351      -29.150024
 C         -34.811970      -96.285538      -32.062645
 C         -34.257729      -94.838524      -30.210070
 C         -33.605515      -95.604691      -31.409458
 H         -36.403610      -97.661674      -31.387770
 H         -34.765102      -98.245628      -30.895529
 H         -35.044174      -95.210823      -28.242046
 H         -33.886543      -96.342934      -28.786310
 H         -35.675194      -95.712013      -32.368912
 H         -34.550797      -96.903900      -32.950787
 H         -33.458225      -94.203560      -29.775095
 H         -35.096054      -94.087395      -30.561947
 H         -33.018093      -94.989838      -32.086830
 H         -32.978443      -96.454193      -31.167152
