20
 generated by VMD
 C         -50.201820     -128.722961      -43.489933
 N         -50.770988     -129.384720      -44.308529
 H         -48.799152     -128.392456      -40.296600
 H         -49.616165     -128.180161      -42.756119
 C         -47.739944     -128.255615      -40.401508
 C         -46.850731     -129.266373      -39.966454
 C         -47.116116     -126.947762      -40.777809
 C         -45.954742     -129.598679      -41.171417
 C         -46.294441     -127.201729      -41.967854
 C         -45.233326     -128.348465      -41.632782
 H         -47.436844     -130.083984      -39.627399
 H         -46.262970     -128.955246      -39.032276
 H         -47.976814     -126.166420      -40.943779
 H         -46.429867     -126.667343      -39.987999
 H         -46.459564     -130.193085      -41.963242
 H         -45.372688     -130.541840      -40.889660
 H         -45.930370     -126.300568      -42.434883
 H         -46.873444     -127.564880      -42.818253
 H         -44.762070     -128.525360      -42.628899
 H         -44.554916     -127.944206      -40.928375
