20
 generated by VMD
 C         -13.792196      -45.469486       -5.609386
 N         -14.334104      -45.221085       -6.566633
 H         -15.022455      -44.201378       -9.170198
 H         -14.466001      -43.969482      -10.847925
 C         -15.308100      -44.254227      -10.221136
 C         -16.423513      -43.267181      -10.556803
 C         -15.770865      -45.677952      -10.553623
 C         -17.069031      -43.297573      -11.936934
 C         -16.218618      -45.701824      -12.034260
 C         -17.376335      -44.757046      -12.357057
 H         -16.051203      -42.268555      -10.346155
 H         -17.173641      -43.452206       -9.826221
 H         -14.942408      -46.390743      -10.496717
 H         -16.547127      -45.929245       -9.858479
 H         -16.359209      -42.939709      -12.716951
 H         -17.955469      -42.673973      -12.074621
 H         -16.409985      -46.735222      -12.359823
 H         -15.391117      -45.453621      -12.633544
 H         -17.466187      -44.604725      -13.468506
 H         -18.315472      -45.145924      -11.964823
