20
 generated by VMD
 C         -39.665077     -105.498138      -37.244297
 N         -40.250420     -104.544632      -36.978168
 H         -39.526535     -108.328476      -35.385654
 H         -39.138142     -106.268387      -37.736095
 C         -39.423878     -108.711937      -34.397556
 C         -38.396469     -108.191513      -33.401993
 C         -40.678574     -109.648537      -33.933743
 C         -38.897793     -108.198997      -31.961147
 C         -40.967979     -109.474800      -32.476387
 C         -39.706886     -109.375839      -31.589306
 H         -38.108746     -107.238129      -33.571571
 H         -37.516357     -108.794998      -33.468098
 H         -41.614777     -109.411942      -34.520058
 H         -40.442757     -110.743118      -34.223614
 H         -39.382595     -107.204773      -31.660612
 H         -37.947044     -108.152512      -31.423010
 H         -41.439404     -110.407104      -32.184952
 H         -41.672161     -108.706772      -32.293751
 H         -39.938080     -109.278885      -30.602158
 H         -39.018147     -110.273308      -31.693411
