20
 generated by VMD
 C         -57.840172     -164.385330      -56.671188
 N         -57.251961     -163.527603      -57.171978
 H         -60.418510     -164.115250      -53.966370
 H         -58.265568     -165.234100      -56.176353
 C         -60.980869     -164.841934      -54.524979
 C         -61.806660     -165.751770      -53.744514
 C         -61.263748     -164.390228      -55.893055
 C         -63.211292     -165.156952      -53.747955
 C         -62.693642     -163.938995      -55.966091
 C         -63.818077     -164.759048      -55.187626
 H         -61.412106     -165.804245      -52.715675
 H         -61.829514     -166.709991      -54.238297
 H         -60.530750     -163.606232      -56.171482
 H         -61.001087     -165.329803      -56.482628
 H         -63.340332     -164.200378      -53.202343
 H         -63.880688     -165.861771      -53.277397
 H         -63.074360     -163.864700      -57.013607
 H         -62.895420     -162.944839      -55.483112
 H         -64.643913     -164.195618      -54.955795
 H         -64.081825     -165.597458      -55.742096
