20
 generated by VMD
 C         -29.400288      -74.313690      -20.180891
 N         -30.432663      -74.845490      -20.271276
 H         -25.841721      -74.075554      -18.947474
 H         -28.288994      -74.090637      -20.284782
 C         -26.096279      -73.831978      -19.996231
 C         -25.701340      -74.981247      -20.823372
 C         -25.686548      -72.430618      -20.382761
 C         -26.080114      -74.856041      -22.200785
 C         -26.071737      -72.222969      -21.893494
 C         -25.572983      -73.435005      -22.720129
 H         -26.234955      -75.830658      -20.373138
 H         -24.678211      -74.963104      -20.732290
 H         -26.289703      -71.709053      -19.906744
 H         -24.597662      -72.254822      -20.429028
 H         -27.140289      -74.944595      -22.267365
 H         -25.640852      -75.586456      -22.899202
 H         -25.673809      -71.240524      -22.399193
 H         -27.133402      -72.229012      -22.073919
 H         -25.984394      -73.372528      -23.742682
 H         -24.500357      -73.586311      -22.650984
