20
 generated by VMD
 C         -31.080019      -74.820770      -22.019135
 N         -31.373632      -75.938942      -21.728662
 H         -28.711433      -76.588387      -21.209761
 H         -30.730614      -73.708206      -22.165270
 C         -27.625362      -76.410675      -21.279512
 C         -26.695398      -77.294693      -21.954027
 C         -27.037487      -75.143135      -20.684475
 C         -25.791456      -76.566826      -22.911963
 C         -26.070940      -74.482002      -21.564545
 C         -25.106274      -75.421867      -22.210810
 H         -27.381926      -77.946327      -22.523350
 H         -26.238672      -78.004181      -21.206863
 H         -27.925852      -74.372314      -20.414314
 H         -26.483770      -75.404633      -19.739683
 H         -26.337889      -76.060577      -23.726660
 H         -25.176435      -77.344948      -23.337313
 H         -25.555521      -73.658844      -21.067835
 H         -26.719975      -74.026169      -22.365061
 H         -24.248354      -75.024483      -22.759604
 H         -24.485764      -75.869537      -21.355295
