20
 generated by VMD
 C         -60.779099     -155.148453      -52.327751
 N         -60.643211     -153.994797      -52.161758
 H         -57.756725     -154.346802      -52.901527
 H         -60.867210     -156.201370      -52.428246
 C         -57.020382     -154.068741      -52.161114
 C         -57.470390     -154.069748      -50.659195
 C         -55.718941     -153.368774      -52.533806
 C         -56.369278     -154.417206      -49.656025
 C         -54.660141     -153.846954      -51.554104
 C         -54.994469     -153.736374      -50.091812
 H         -58.352249     -154.695526      -50.614216
 H         -57.809235     -153.116119      -50.340759
 H         -55.427368     -153.579422      -53.551579
 H         -55.902798     -152.256973      -52.384636
 H         -56.038780     -155.341003      -49.865276
 H         -56.630512     -154.194214      -48.645767
 H         -53.811306     -153.237579      -51.682781
 H         -54.278114     -154.901016      -51.745575
 H         -54.086166     -154.174026      -49.575737
 H         -54.976299     -152.719604      -49.847439
