20
 generated by VMD
 C         -78.737946     -209.263840      -76.856163
 N         -79.757042     -208.697800      -76.989105
 H         -77.904976     -209.038635      -72.993553
 H         -77.877861     -209.811539      -76.837761
 C         -78.080978     -209.801254      -72.242058
 C         -76.905136     -210.113129      -71.409836
 C         -79.202957     -210.880051      -72.493919
 C         -77.358696     -210.630249      -70.040901
 C         -79.492035     -211.634476      -71.135971
 C         -78.213875     -211.901031      -70.242790
 H         -76.321259     -209.165710      -71.335304
 H         -76.168587     -210.811020      -71.942909
 H         -80.099915     -210.312531      -72.738518
 H         -78.952843     -211.571014      -73.353226
 H         -77.985153     -209.800171      -69.607666
 H         -76.546349     -210.686539      -69.288574
 H         -79.971954     -212.604797      -71.381798
 H         -80.157799     -211.095032      -70.463516
 H         -78.438057     -212.495926      -69.376709
 H         -77.552025     -212.496780      -70.843048
