20
 generated by VMD
 C         -27.746267      -81.617722      -26.714424
 N         -28.241499      -82.158997      -27.650444
 H         -30.985317      -83.738525      -26.235952
 H         -27.507437      -81.166344      -25.836435
 C         -31.068525      -84.419777      -25.366722
 C         -30.722054      -84.190262      -23.971231
 C         -31.744560      -85.660118      -25.816813
 C         -31.728149      -84.768150      -22.932751
 C         -32.865948      -86.108109      -24.840788
 C         -32.371521      -86.110207      -23.393845
 H         -30.473400      -83.052467      -23.920219
 H         -29.751259      -84.676895      -23.882380
 H         -31.945969      -85.503418      -26.890755
 H         -31.093634      -86.588837      -25.800421
 H         -32.656643      -84.107697      -22.634455
 H         -31.163776      -85.067673      -22.082565
 H         -33.176788      -87.022484      -25.212652
 H         -33.705582      -85.369247      -24.847589
 H         -33.197124      -86.387451      -22.817295
 H         -31.641766      -86.880524      -23.305372
