20
 generated by VMD
 C         -68.999268     -180.071793      -62.209839
 N         -69.706375     -181.015152      -62.279499
 H         -66.871658     -180.575897      -59.214363
 H         -68.446716     -179.152145      -62.194000
 C         -66.337059     -179.703552      -59.597973
 C         -65.491631     -179.973053      -60.882568
 C         -66.047005     -178.408630      -58.945206
 C         -65.266655     -178.711639      -61.739628
 C         -66.145363     -177.223358      -59.864300
 C         -65.049278     -177.362976      -60.898758
 H         -65.941185     -180.706772      -61.486984
 H         -64.556175     -180.318771      -60.606632
 H         -66.831581     -178.222137      -58.186588
 H         -65.089294     -178.444473      -58.375988
 H         -66.117386     -178.598251      -62.350929
 H         -64.471024     -178.865250      -62.420658
 H         -66.014610     -176.246872      -59.298096
 H         -67.179131     -177.075699      -60.268059
 H         -65.222336     -176.555038      -61.769836
 H         -64.066879     -177.098114      -60.631256
