20
 generated by VMD
 C         -70.431061     -196.673248      -65.498886
 N         -69.434303     -196.818115      -66.043282
 H         -73.580139     -195.713837      -65.016335
 H         -71.403343     -196.443024      -65.045486
 C         -73.507057     -195.180237      -65.964638
 C         -73.026978     -193.738693      -65.998116
 C         -74.544746     -195.605698      -67.040627
 C         -72.410812     -193.578369      -67.336700
 C         -74.123055     -195.062698      -68.339828
 C         -73.494621     -193.563995      -68.368858
 H         -72.259064     -193.518356      -65.096985
 H         -73.816582     -192.997726      -65.717484
 H         -74.621948     -196.664154      -66.959167
 H         -75.456062     -195.100037      -66.706177
 H         -71.636154     -194.361481      -67.521904
 H         -71.827637     -192.661133      -67.480614
 H         -74.917206     -195.210938      -69.030884
 H         -73.277573     -195.659088      -68.796181
 H         -73.187454     -193.406601      -69.343498
 H         -74.359299     -192.798813      -68.140572
