20
 generated by VMD
 C         -47.947918     -134.583359      -46.922108
 N         -47.990284     -134.083694      -48.027077
 H         -50.340607     -134.405991      -44.905258
 H         -47.899296     -134.952957      -45.847336
 C         -50.485130     -135.269424      -44.278107
 C         -50.834724     -136.479080      -45.057995
 C         -51.108913     -135.098282      -42.866684
 C         -50.937519     -137.785461      -44.176067
 C         -51.211353     -136.392227      -42.113762
 C         -51.812031     -137.570679      -42.982105
 H         -50.003330     -136.795944      -45.778534
 H         -51.738152     -136.326096      -45.661770
 H         -50.371368     -134.436157      -42.245285
 H         -52.065868     -134.617416      -42.739235
 H         -49.913475     -137.912552      -43.880669
 H         -51.185436     -138.747223      -44.719982
 H         -51.969784     -136.162415      -41.386852
 H         -50.286106     -136.608566      -41.643013
 H         -51.681801     -138.472626      -42.424294
 H         -52.916428     -137.468643      -43.368774
