20
 generated by VMD
 C         -61.646339     -154.675720      -53.799290
 N         -62.228046     -155.629730      -54.022358
 H         -58.193909     -155.385880      -51.959324
 H         -60.972530     -153.905777      -53.455875
 C         -57.246170     -154.935776      -51.633846
 C         -57.177704     -154.358093      -50.298412
 C         -56.043655     -154.775406      -52.480255
 C         -56.033642     -154.748825      -49.457382
 C         -54.843613     -155.116196      -51.640850
 C         -54.783913     -154.520340      -50.217663
 H         -58.102314     -154.569427      -49.924019
 H         -57.140636     -153.288620      -50.216557
 H         -56.315407     -155.325302      -53.353668
 H         -55.916946     -153.677719      -52.795860
 H         -56.012524     -155.740829      -48.961456
 H         -56.047958     -154.193573      -48.510159
 H         -53.954571     -155.034592      -52.162964
 H         -54.823498     -156.220001      -51.415005
 H         -54.012177     -154.986343      -49.596729
 H         -54.705528     -153.381729      -50.235859
