20
 generated by VMD
 C         -61.321247     -156.144043      -55.100147
 N         -60.404804     -155.810730      -55.641159
 H         -59.625320     -156.328537      -51.580177
 H         -62.264530     -156.519836      -54.743858
 C         -58.577038     -156.400055      -51.267143
 C         -57.768265     -155.108688      -50.964779
 C         -57.848961     -157.495987      -52.022991
 C         -56.307949     -155.335968      -50.351231
 C         -56.525326     -157.711075      -51.363796
 C         -55.591419     -156.521713      -51.221771
 H         -58.510601     -154.582047      -50.286129
 H         -57.670128     -154.456146      -51.911388
 H         -58.445614     -158.323349      -51.952484
 H         -57.698685     -157.225922      -53.066784
 H         -56.716671     -155.663712      -49.386211
 H         -55.708008     -154.484482      -50.506977
 H         -55.921597     -158.494507      -51.890804
 H         -56.889412     -158.113007      -50.337395
 H         -54.680374     -156.903625      -50.603374
 H         -55.223164     -156.142395      -52.118416
