20
 generated by VMD
 C         -39.942020     -100.949875      -31.573648
 N         -40.620674     -100.109482      -31.118044
 H         -37.252254     -103.586372      -31.603441
 H         -39.158939     -101.603195      -31.717152
 C         -36.854454     -102.528587      -31.532389
 C         -36.064762     -101.947533      -32.820808
 C         -36.602180     -102.023109      -30.192768
 C         -35.861134     -100.516235      -32.508167
 C         -36.248028     -100.536995      -30.061686
 C         -35.229889     -100.249985      -31.187496
 H         -36.764126     -102.009323      -33.664871
 H         -35.129902     -102.508492      -32.997158
 H         -37.496380     -102.187927      -29.582312
 H         -35.847305     -102.681816      -29.701099
 H         -36.756695     -100.028900      -32.577847
 H         -35.180168     -100.218246      -33.315445
 H         -35.893772     -100.230873      -28.971964
 H         -37.163063     -100.034653      -30.300642
 H         -35.136253      -99.196472      -31.173882
 H         -34.272388     -100.825478      -31.103977
