20
 generated by VMD
 C         -80.072754     -205.486801      -71.491760
 N         -80.106438     -206.617477      -71.519363
 H         -77.366531     -203.067917      -70.127579
 H         -80.001160     -204.368042      -71.360703
 C         -76.311462     -203.401718      -70.236488
 C         -75.196968     -202.463089      -70.602242
 C         -76.018097     -204.780930      -70.105812
 C         -73.701355     -203.072021      -70.434418
 C         -74.862968     -205.087189      -69.187790
 C         -73.594955     -204.354156      -69.567352
 H         -75.223404     -201.662552      -69.881096
 H         -75.227097     -201.931229      -71.571510
 H         -76.978561     -205.295380      -69.724068
 H         -75.837654     -205.219330      -71.161980
 H         -73.011650     -202.259766      -70.129601
 H         -73.402618     -203.283295      -71.483971
 H         -74.644821     -206.101898      -69.152122
 H         -75.151054     -204.798889      -68.116692
 H         -73.167686     -203.960098      -68.639061
 H         -72.806145     -205.063751      -69.950584
