20
 generated by VMD
 C         -65.208817     -176.155243      -55.910686
 N         -65.208900     -177.258255      -55.571796
 H         -64.471977     -174.751862      -59.027138
 H         -65.302261     -175.126587      -56.151722
 C         -64.563881     -173.675507      -59.395817
 C         -65.237335     -172.602402      -58.500549
 C         -63.704281     -173.278641      -60.681919
 C         -64.614731     -171.282013      -58.590027
 C         -63.030430     -171.893616      -60.480049
 C         -64.131996     -170.926041      -59.969627
 H         -65.068451     -172.837204      -57.463264
 H         -66.344254     -172.588058      -58.626587
 H         -63.027184     -174.018234      -61.086693
 H         -64.407204     -173.256287      -61.533676
 H         -63.797279     -171.228104      -57.770260
 H         -65.334602     -170.436966      -58.365475
 H         -62.567791     -171.522766      -61.352234
 H         -62.214901     -171.898026      -59.742710
 H         -63.726139     -169.936584      -59.787262
 H         -64.994934     -170.736282      -60.635685
