20
 generated by VMD
 C          -9.719914      -24.834558        0.580631
 N         -10.557634      -25.304283        0.022614
 H          -6.172537      -24.132006       -0.910016
 H          -7.816991      -23.647215       -0.927995
 C          -6.953901      -23.842495       -1.606632
 C          -7.203243      -25.086441       -2.520603
 C          -6.630265      -22.618391       -2.379630
 C          -8.167792      -24.838711       -3.739710
 C          -7.557471      -22.374929       -3.611730
 C          -7.617506      -23.624390       -4.496631
 H          -7.735279      -25.804989       -1.933187
 H          -6.176610      -25.573858       -2.765892
 H          -6.739688      -21.780704       -1.677309
 H          -5.609380      -22.607191       -2.764137
 H          -9.193715      -24.751419       -3.442374
 H          -8.120833      -25.653646       -4.403686
 H          -7.086683      -21.566599       -4.222133
 H          -8.562606      -22.034277       -3.315169
 H          -8.356606      -23.452755       -5.303629
 H          -6.604027      -23.808300       -4.882430
