20
 generated by VMD
 C         -19.697727      -63.952606      -16.473392
 N         -20.050465      -63.100891      -17.157753
 H         -23.492020      -63.290272      -17.161592
 H         -19.552691      -64.853798      -15.755533
 C         -24.004751      -64.124260      -17.576162
 C         -24.429577      -64.184860      -18.977232
 C         -24.400087      -65.210762      -16.548004
 C         -24.678785      -65.714638      -19.359978
 C         -24.800203      -66.613640      -17.178980
 C         -25.560017      -66.539406      -18.418568
 H         -23.668501      -63.817974      -19.608498
 H         -25.357216      -63.649414      -19.091419
 H         -23.576839      -65.412689      -15.984463
 H         -25.271379      -64.791344      -16.001984
 H         -23.769068      -66.269394      -19.529613
 H         -25.190729      -65.799728      -20.341768
 H         -25.329643      -67.130440      -16.411655
 H         -23.838785      -67.119041      -17.418060
 H         -25.836092      -67.501495      -18.729626
 H         -26.525213      -66.017159      -18.371271
