20
 generated by VMD
 C         -40.220341     -104.781998      -36.591145
 N         -39.440891     -104.096260      -37.120144
 H         -40.151894     -108.342484      -35.344921
 H         -40.784313     -105.322464      -35.886688
 C         -39.931858     -108.481331      -34.279720
 C         -38.754917     -107.748405      -33.691128
 C         -40.023235     -109.859772      -33.440796
 C         -38.900036     -107.370689      -32.240993
 C         -40.391445     -109.432411      -32.011665
 C         -39.218849     -108.706322      -31.432133
 H         -38.631966     -106.804886      -34.271744
 H         -37.748772     -108.306061      -33.909992
 H         -40.870117     -110.454491      -33.804035
 H         -39.022755     -110.380959      -33.624954
 H         -39.662426     -106.536621      -32.097328
 H         -37.889526     -107.009315      -32.028500
 H         -40.607929     -110.388138      -31.431290
 H         -41.313881     -108.872292      -31.828897
 H         -39.292282     -108.484039      -30.408142
 H         -38.237183     -109.396294      -31.552244
