20
 generated by VMD
 C         -20.565542      -56.485001      -16.866386
 N         -21.376020      -55.854225      -17.354742
 H         -22.424957      -58.336739      -16.323425
 H         -19.952539      -56.919941      -16.019747
 C         -22.095060      -59.263969      -15.916861
 C         -22.286240      -59.240566      -14.449546
 C         -21.688768      -60.602551      -16.546955
 C         -21.029633      -59.703789      -13.751817
 C         -20.738632      -61.375145      -15.626824
 C         -20.860374      -61.170815      -14.163160
 H         -23.171974      -59.788448      -14.224130
 H         -22.331139      -58.166130      -14.159926
 H         -22.570957      -61.240257      -16.816755
 H         -21.103781      -60.339512      -17.478025
 H         -21.290926      -59.633217      -12.701702
 H         -20.126972      -59.052582      -13.832546
 H         -19.652403      -61.175823      -15.939193
 H         -21.023504      -62.424969      -15.826583
 H         -21.512280      -61.919437      -13.765655
 H         -19.864939      -61.526974      -13.769584
