20
 generated by VMD
 C         -58.416912     -159.004379      -58.025627
 N         -59.178070     -159.160965      -57.230038
 H         -59.044117     -160.426315      -54.852379
 H         -57.713089     -158.895859      -58.835320
 C         -59.440163     -160.845749      -53.966599
 C         -58.624744     -161.125366      -52.805340
 C         -60.643970     -161.609329      -54.012943
 C         -59.438778     -161.229904      -51.455494
 C         -61.530357     -161.888046      -52.782852
 C         -60.662235     -162.145691      -51.572617
 H         -57.880192     -160.379501      -52.711796
 H         -57.910202     -162.008987      -52.919090
 H         -61.167778     -161.113464      -54.923656
 H         -60.341179     -162.620972      -54.364799
 H         -59.931877     -160.208496      -51.309471
 H         -58.899414     -161.712433      -50.633751
 H         -62.284863     -162.679123      -52.943199
 H         -62.056744     -160.903549      -52.601040
 H         -61.308708     -161.864395      -50.660957
 H         -60.379234     -163.243637      -51.535019
