20
 generated by VMD
 C         -17.873600      -48.443947       -6.997207
 N         -17.371653      -47.655441       -6.387424
 H         -16.475101      -48.552429      -10.318943
 H         -15.754508      -48.945900      -11.951533
 C         -16.322662      -48.197861      -11.374013
 C         -15.554276      -46.899620      -11.378903
 C         -17.649269      -47.886105      -12.060023
 C         -15.442484      -45.978012      -12.686460
 C         -17.442253      -47.203236      -13.448881
 C         -16.789555      -45.823799      -13.303432
 H         -14.522459      -47.162258      -11.053984
 H         -15.813415      -46.252041      -10.547325
 H         -18.303616      -48.734756      -12.091171
 H         -18.219458      -47.189983      -11.458714
 H         -14.734589      -46.444660      -13.385742
 H         -15.016699      -45.001148      -12.407526
 H         -18.418362      -47.131580      -13.897222
 H         -16.705605      -47.706974      -14.203751
 H         -16.727623      -45.289139      -14.303945
 H         -17.428759      -45.199192      -12.638871
