20
 generated by VMD
 C          -1.299368       -9.672446        1.178730
 N          -1.849334       -9.816132        0.197075
 H          -3.028008      -12.138141        1.429775
 H          -3.830438      -12.067084        2.966357
 C          -3.696045      -12.682896        2.051965
 C          -2.996046      -13.937666        2.474981
 C          -5.036442      -12.968349        1.420641
 C          -4.001385      -14.903011        3.272259
 C          -5.949835      -13.792125        2.255349
 C          -5.306146      -15.094127        2.521749
 H          -2.135012      -13.796678        3.158891
 H          -2.743214      -14.576006        1.674292
 H          -5.544590      -11.978286        1.145546
 H          -4.820436      -13.496694        0.416328
 H          -4.164896      -14.467749        4.320405
 H          -3.433174      -15.897431        3.370356
 H          -6.873738      -13.985627        1.731301
 H          -6.147252      -13.302143        3.172874
 H          -6.038062      -15.756801        3.023748
 H          -5.071677      -15.571668        1.558059
