20
 generated by VMD
 C         -17.917753      -48.480232       -7.065872
 N         -17.479836      -47.767059       -6.336443
 H         -16.455046      -48.507858      -10.441011
 H         -15.844688      -48.925396      -12.004540
 C         -16.328667      -48.092350      -11.465877
 C         -15.364672      -46.868206      -11.391352
 C         -17.706917      -47.795532      -12.075411
 C         -15.412803      -46.124809      -12.679985
 C         -17.524633      -47.303867      -13.462887
 C         -16.820866      -45.942780      -13.282831
 H         -14.387631      -47.151035      -10.957429
 H         -15.697260      -46.198620      -10.585145
 H         -18.180576      -48.753990      -12.136182
 H         -18.368048      -47.169518      -11.460680
 H         -14.842364      -46.675331      -13.437963
 H         -14.958590      -45.154301      -12.546698
 H         -18.437113      -47.078072      -13.986759
 H         -16.930759      -48.000137      -14.052690
 H         -16.688379      -45.508747      -14.288806
 H         -17.473980      -45.276264      -12.652821
