20
 generated by VMD
 C         -70.163223     -183.912079      -66.044441
 N         -69.035072     -183.644684      -66.263336
 H         -68.787567     -184.507950      -63.569740
 H         -71.202538     -184.084274      -65.821167
 C         -68.612953     -184.123062      -62.592457
 C         -68.866333     -184.665939      -61.241322
 C         -68.063759     -182.713470      -62.531513
 C         -67.767967     -184.526779      -60.201488
 C         -66.948654     -182.423080      -61.524483
 C         -67.369461     -183.072250      -60.196606
 H         -69.179665     -185.710007      -61.482685
 H         -69.768791     -184.163834      -60.834763
 H         -67.693825     -182.491669      -63.484936
 H         -68.878380     -181.981827      -62.208683
 H         -66.839706     -185.112839      -60.570457
 H         -68.170357     -185.012070      -59.297508
 H         -66.743782     -181.383545      -61.454941
 H         -66.030937     -182.903687      -61.782074
 H         -66.445305     -183.042877      -59.551697
 H         -68.032333     -182.331497      -59.637684
