20
 generated by VMD
 C         -13.428357      -44.333843       -6.651984
 N         -13.897134      -44.002655       -5.686520
 H         -14.928922      -44.819351       -8.966195
 H         -14.340581      -43.883045      -10.356281
 C         -15.217137      -44.458679       -9.949780
 C         -16.456224      -43.511822       -9.883065
 C         -15.525093      -45.556019      -10.872779
 C         -16.883467      -42.937374      -11.251320
 C         -16.152731      -45.038166      -12.193765
 C         -17.339437      -44.071178      -12.160066
 H         -16.127029      -42.691044       -9.224023
 H         -17.346786      -43.940582       -9.401168
 H         -14.595435      -46.091312      -11.182694
 H         -16.230995      -46.273186      -10.445808
 H         -16.053011      -42.409100      -11.741510
 H         -17.647738      -42.187042      -11.107546
 H         -16.406944      -45.843510      -12.876259
 H         -15.240983      -44.542957      -12.642907
 H         -17.571745      -43.644840      -13.173847
 H         -18.245510      -44.563507      -11.713229
