20
 generated by VMD
 C         -59.267563     -158.339233      -56.156891
 N         -58.841732     -158.557755      -57.203053
 H         -60.682327     -157.963898      -52.838329
 H         -59.751175     -158.088211      -55.211868
 C         -60.081436     -158.828384      -52.935936
 C         -58.461723     -158.716049      -52.764614
 C         -60.614441     -160.178635      -53.261967
 C         -58.147762     -159.751038      -51.619415
 C         -60.107681     -161.253510      -52.232681
 C         -58.640423     -161.164871      -51.835541
 H         -58.281288     -157.625793      -52.421955
 H         -58.008816     -159.015076      -53.733395
 H         -61.792694     -160.173782      -53.426094
 H         -60.213470     -160.538971      -54.205769
 H         -58.561966     -159.311295      -50.741714
 H         -57.031433     -159.951431      -51.324364
 H         -60.157032     -162.318115      -52.491684
 H         -60.831329     -161.083664      -51.389389
 H         -58.547455     -161.863510      -51.035362
 H         -57.975571     -161.686295      -52.644035
