20
 generated by VMD
 C         -41.107693     -104.608307      -35.955688
 N         -42.103760     -104.937202      -36.462215
 H         -38.219349     -104.109497      -33.262966
 H         -40.224789     -104.053764      -35.555576
 C         -38.216396     -105.054718      -32.733379
 C         -36.937794     -105.644348      -32.160915
 C         -39.091064     -106.125610      -33.403175
 C         -37.161385     -106.649170      -31.161612
 C         -39.439835     -107.111694      -32.312481
 C         -38.105034     -107.653465      -31.716364
 H         -36.408688     -104.843689      -31.567743
 H         -36.208237     -105.887337      -33.041397
 H         -40.064919     -105.715210      -33.780518
 H         -38.575977     -106.432816      -34.273174
 H         -37.537716     -106.344421      -30.144915
 H         -36.275108     -107.178215      -30.822289
 H         -39.993633     -107.938156      -32.813091
 H         -39.895088     -106.599976      -31.452888
 H         -38.337246     -108.255692      -30.887836
 H         -37.560291     -108.282837      -32.492786
