20
 generated by VMD
 C         -29.002420      -74.337166      -19.477039
 N         -30.150969      -74.360283      -19.818771
 H         -25.728676      -73.346123      -18.820557
 H         -27.969542      -74.379112      -19.386408
 C         -25.788311      -73.227829      -19.925056
 C         -25.461254      -74.487663      -20.671139
 C         -25.689320      -71.860352      -20.506348
 C         -25.869715      -74.356430      -22.221851
 C         -26.083593      -71.823105      -21.862202
 C         -25.661634      -72.988632      -22.697935
 H         -25.860022      -75.407494      -20.133295
 H         -24.404009      -74.581673      -20.563482
 H         -26.306988      -71.167992      -19.946583
 H         -24.634399      -71.641396      -20.215654
 H         -26.919897      -74.637520      -22.195234
 H         -25.293711      -75.056190      -22.892832
 H         -25.622246      -70.947876      -22.337957
 H         -27.188288      -71.754234      -21.981310
 H         -26.006998      -72.902740      -23.722860
 H         -24.558973      -72.892303      -22.804558
