20
 generated by VMD
 C         -15.111182      -46.326466       -5.725732
 N         -14.823981      -47.410450       -5.595865
 H         -15.885311      -45.216248       -9.478969
 H         -14.721461      -45.185581      -10.938975
 C         -15.761331      -45.183697      -10.608769
 C         -16.419149      -43.866859      -11.103580
 C         -16.497742      -46.426617      -11.166979
 C         -16.566698      -43.958618      -12.666813
 C         -16.659201      -46.560802      -12.657150
 C         -17.327091      -45.253178      -13.089846
 H         -15.930038      -42.949177      -10.809862
 H         -17.445873      -43.865833      -10.738234
 H         -15.988753      -47.356773      -10.870990
 H         -17.445698      -46.347244      -10.684227
 H         -15.585634      -43.941204      -13.140551
 H         -17.140297      -43.090981      -13.015136
 H         -17.272558      -47.471561      -12.852597
 H         -15.737235      -46.718388      -13.094408
 H         -17.434185      -45.175182      -14.208961
 H         -18.360733      -45.323395      -12.764987
