20
 generated by VMD
 C         -63.115654     -173.381302      -55.695007
 N         -63.190258     -174.063126      -54.733276
 H         -61.515312     -171.509689      -58.715530
 H         -63.041336     -172.626007      -56.474598
 C         -62.512623     -171.079010      -58.569252
 C         -62.602753     -169.742218      -57.823055
 C         -63.797859     -171.765228      -59.124489
 C         -63.650993     -168.797028      -58.338417
 C         -64.940117     -170.829727      -59.539761
 C         -65.037201     -169.531815      -58.535187
 H         -61.629303     -169.271530      -57.937752
 H         -62.702507     -170.039322      -56.775600
 H         -63.387810     -172.222366      -59.971001
 H         -63.973835     -172.431854      -58.324615
 H         -63.345009     -168.416306      -59.306953
 H         -63.685223     -167.929916      -57.623829
 H         -65.897255     -171.360168      -59.583908
 H         -64.678139     -170.481934      -60.498569
 H         -65.748436     -168.734421      -59.002823
 H         -65.518639     -169.911087      -57.617989
