20
 generated by VMD
 C         -47.616310     -136.622665      -45.916306
 N         -46.958965     -136.098419      -46.653427
 H         -50.911514     -135.517105      -45.669922
 H         -48.420975     -137.129410      -45.454342
 C         -51.519733     -136.361526      -45.256725
 C         -52.076767     -137.499207      -46.117092
 C         -51.936558     -136.315826      -43.865108
 C         -52.040180     -138.839676      -45.471008
 C         -51.760475     -137.705200      -43.180176
 C         -52.451725     -138.732864      -43.991589
 H         -51.463108     -137.487442      -47.038250
 H         -53.108124     -137.314880      -46.546600
 H         -51.230274     -135.580582      -43.377296
 H         -52.870594     -135.784683      -43.797497
 H         -50.993782     -139.113052      -45.393463
 H         -52.670124     -139.718185      -45.886166
 H         -52.366829     -137.575546      -42.254555
 H         -50.760937     -138.174301      -42.924706
 H         -52.271442     -139.721802      -43.424767
 H         -53.561733     -138.613052      -43.781757
