20
 generated by VMD
 C         -78.381516     -210.172943      -76.345390
 N         -77.449265     -210.811417      -76.313820
 H         -80.139931     -212.151428      -74.689667
 H         -79.283966     -209.522369      -76.373550
 C         -79.991661     -212.694763      -73.716537
 C         -78.540306     -212.700119      -73.365379
 C         -80.972076     -213.649933      -73.296677
 C         -78.424957     -212.919312      -71.828064
 C         -80.898285     -213.497849      -71.779991
 C         -79.499001     -213.847488      -71.262260
 H         -78.001236     -211.829788      -73.774574
 H         -78.005043     -213.549805      -73.887657
 H         -81.981316     -213.357269      -73.667900
 H         -80.769081     -214.656845      -73.526581
 H         -78.522408     -211.910110      -71.452736
 H         -77.474159     -213.456284      -71.564674
 H         -81.587326     -214.324661      -71.420570
 H         -81.368385     -212.672806      -71.440956
 H         -79.537064     -213.786926      -70.212952
 H         -79.224739     -214.793976      -71.695061
