20
 generated by VMD
 C         -12.632689      -27.748533       -4.419167
 N         -13.743579      -27.867044       -4.505262
 H         -10.648551      -29.578863       -2.683112
 H         -10.477438      -27.972507       -3.595304
 C          -9.957360      -28.928301       -3.242783
 C          -9.423735      -29.852821       -4.335248
 C          -8.779566      -28.477720       -2.367907
 C          -8.491116      -28.991993       -5.241822
 C          -7.762090      -27.674931       -3.222974
 C          -7.309147      -28.481997       -4.371537
 H         -10.327102      -30.134027       -4.896404
 H          -8.858908      -30.722027       -3.910227
 H          -9.131655      -27.773062       -1.609519
 H          -8.173259      -29.311352       -1.899085
 H          -9.026803      -28.158611       -5.696874
 H          -8.052243      -29.575499       -6.019572
 H          -6.913283      -27.499817       -2.509204
 H          -8.246062      -26.731085       -3.522433
 H          -6.704209      -27.867998       -5.027576
 H          -6.618238      -29.358612       -4.219020
