20
 generated by VMD
 C         -49.739124     -127.755188      -39.078716
 N         -49.629509     -126.677544      -38.656223
 H         -47.113346     -125.752060      -40.481564
 H         -49.969292     -128.780869      -39.365669
 C         -46.203400     -125.157715      -40.761456
 C         -44.808933     -125.826912      -40.415924
 C         -46.464779     -123.638809      -41.135654
 C         -43.732578     -124.899620      -40.905479
 C         -45.204712     -123.000244      -41.486565
 C         -43.970871     -123.392998      -40.714989
 H         -44.718834     -126.711189      -41.046230
 H         -44.776886     -126.125305      -39.365753
 H         -47.300217     -123.663185      -41.897324
 H         -46.870033     -123.220772      -40.261555
 H         -43.422943     -125.109138      -41.923985
 H         -42.850552     -125.061554      -40.301388
 H         -45.442078     -121.905914      -41.371597
 H         -45.104820     -123.134445      -42.571529
 H         -43.225586     -122.840210      -41.257652
 H         -43.954067     -123.137070      -39.620419
