20
 generated by VMD
 C         -57.822247     -164.839111      -56.509476
 N         -57.256378     -164.121246      -57.197388
 H         -59.912781     -164.878311      -54.405396
 H         -58.300087     -165.528564      -55.870129
 C         -60.975826     -164.964310      -54.684238
 C         -61.935783     -165.774246      -53.849327
 C         -61.448784     -164.206009      -55.819160
 C         -63.441143     -165.656433      -54.179199
 C         -62.975204     -163.858582      -55.779606
 C         -63.726238     -165.164459      -55.559723
 H         -61.735023     -165.606873      -52.815235
 H         -61.719646     -166.816147      -54.115730
 H         -60.923664     -163.224945      -55.946693
 H         -61.419666     -164.691147      -56.789288
 H         -63.861584     -164.942993      -53.417194
 H         -63.897034     -166.650314      -54.000572
 H         -63.329903     -163.488754      -56.772049
 H         -63.209717     -163.149811      -54.997753
 H         -64.762413     -165.013748      -55.606998
 H         -63.396481     -165.921341      -56.261333
