20
 generated by VMD
 C          -1.234345      -10.882768        0.821999
 N          -1.255566       -9.915968        1.325832
 H          -3.672081      -12.480899        0.584629
 H          -4.663731      -12.281635        1.955236
 C          -4.278215      -13.059530        1.326968
 C          -3.355987      -13.957026        2.176556
 C          -5.397192      -13.876218        0.721765
 C          -4.219999      -14.623369        3.256314
 C          -6.226640      -14.661103        1.705137
 C          -5.406208      -15.439318        2.716173
 H          -2.576257      -13.380710        2.649909
 H          -2.943426      -14.736507        1.536579
 H          -5.986794      -13.078132        0.175162
 H          -4.881541      -14.487451       -0.063917
 H          -4.609496      -13.873010        3.958977
 H          -3.667797      -15.342039        3.877656
 H          -6.978793      -15.233274        1.202468
 H          -6.793625      -13.917549        2.277301
 H          -6.053786      -15.861626        3.533834
 H          -4.983926      -16.371977        2.238407
