20
 generated by VMD
 C         -47.799774     -139.630814      -46.011192
 N         -46.717369     -139.173203      -46.095108
 H         -50.942612     -138.925217      -44.594620
 H         -48.871170     -139.924744      -45.972862
 C         -51.804375     -139.080856      -45.228966
 C         -51.923920     -139.371353      -46.741306
 C         -53.154964     -138.826294      -44.573055
 C         -53.018204     -140.353561      -47.060944
 C         -54.225685     -139.824814      -44.955753
 C         -54.409412     -140.020630      -46.406956
 H         -50.899460     -139.839920      -47.013035
 H         -52.175518     -138.428940      -47.283527
 H         -52.967491     -138.763474      -43.509102
 H         -53.538918     -137.929489      -44.982967
 H         -52.691048     -141.390488      -46.721016
 H         -53.258366     -140.451065      -48.128838
 H         -55.130993     -139.584106      -44.486969
 H         -53.905411     -140.887360      -44.728806
 H         -55.183487     -140.924667      -46.511776
 H         -54.864914     -139.052124      -46.806847
