20
 generated by VMD
 C         -12.791151      -28.620132       -5.892664
 N         -13.069654      -28.684977       -6.971837
 H         -12.114851      -31.167543       -5.110424
 H         -10.943386      -29.810812       -5.046975
 C         -11.085877      -30.919775       -4.782967
 C         -10.114481      -31.721630       -5.627521
 C         -10.857232      -31.065723       -3.243136
 C          -8.697126      -31.463768       -5.171261
 C          -9.388744      -30.723776       -2.869357
 C          -8.413878      -31.633358       -3.667759
 H         -10.319689      -31.479404       -6.623742
 H         -10.351140      -32.856022       -5.498504
 H         -11.551327      -30.484526       -2.632541
 H         -11.047530      -32.100441       -3.031317
 H          -8.469287      -30.403715       -5.413481
 H          -7.976562      -32.116653       -5.659575
 H          -9.156391      -30.872414       -1.787655
 H          -9.192684      -29.679035       -3.052552
 H          -7.304049      -31.464041       -3.452162
 H          -8.629840      -32.687992       -3.466630
