20
 generated by VMD
 C         -31.474026      -76.781113      -24.822985
 N         -32.012787      -77.009804      -25.822874
 H         -29.316769      -77.088646      -22.608994
 H         -31.393963      -76.595322      -23.853430
 C         -28.537289      -77.745895      -22.210842
 C         -27.454615      -77.946243      -23.198715
 C         -28.785175      -78.814232      -21.113464
 C         -26.207825      -78.579620      -22.693314
 C         -27.443125      -79.230515      -20.564545
 C         -26.353493      -79.607445      -21.588894
 H         -27.234774      -76.980736      -23.650480
 H         -27.820017      -78.704926      -23.873724
 H         -29.439671      -78.392639      -20.417219
 H         -29.219652      -79.725677      -21.517670
 H         -25.489676      -77.866364      -22.259476
 H         -25.683075      -78.872231      -23.573095
 H         -27.605635      -79.968323      -19.888285
 H         -27.004892      -78.468613      -20.011145
 H         -25.313059      -79.729004      -21.163584
 H         -26.475908      -80.632896      -22.039200
