20
 generated by VMD
 C         -27.793348      -84.574371      -26.116245
 N         -28.321180      -84.867332      -27.078169
 H         -31.167595      -84.667839      -26.195141
 H         -27.198965      -84.325912      -25.186813
 C         -31.572756      -85.564095      -25.807646
 C         -31.874933      -85.784584      -24.341787
 C         -32.038052      -86.572632      -26.916212
 C         -33.219780      -86.530121      -24.068380
 C         -33.350307      -87.258728      -26.472353
 C         -33.486431      -87.748672      -25.019938
 H         -31.917284      -84.749069      -23.786795
 H         -31.013834      -86.331856      -23.961384
 H         -32.090378      -86.180779      -27.934834
 H         -31.301025      -87.477913      -26.964745
 H         -34.024731      -85.870255      -24.159855
 H         -33.293304      -86.772934      -23.019775
 H         -33.365395      -88.035110      -27.191868
 H         -34.177265      -86.631699      -26.726372
 H         -34.495312      -88.131714      -24.852198
 H         -32.846684      -88.487839      -24.717787
