20
 generated by VMD
 C          -4.193852      -20.790346        2.952184
 N          -4.729334      -19.819637        2.822107
 H          -5.037798      -18.976149       -0.384758
 H          -5.804727      -20.580149       -0.425861
 C          -5.854974      -19.554001       -0.808504
 C          -5.667867      -19.711344       -2.302453
 C          -7.276155      -18.998354       -0.473966
 C          -6.820422      -20.426970       -3.042392
 C          -8.398754      -19.737431       -1.275981
 C          -8.167454      -19.813021       -2.778571
 H          -4.833150      -20.299595       -2.523542
 H          -5.649089      -18.686493       -2.773772
 H          -7.392713      -19.237297        0.598096
 H          -7.263555      -17.899437       -0.684127
 H          -6.891119      -21.510805       -2.727626
 H          -6.537446      -20.419722       -4.126633
 H          -9.355462      -19.269112       -1.048157
 H          -8.460507      -20.785656       -0.903737
 H          -8.939120      -20.382305       -3.306767
 H          -8.085237      -18.762375       -3.055898
