20
 generated by VMD
 C         -29.674370      -91.087029      -25.246342
 N         -29.000298      -91.971527      -24.989222
 H         -32.233559      -90.439163      -26.940424
 H         -30.495478      -90.322670      -25.463171
 C         -33.096729      -90.550270      -27.497896
 C         -34.274818      -91.474419      -27.485813
 C         -33.099827      -89.612549      -28.679949
 C         -35.576294      -90.809891      -27.477182
 C         -34.493660      -88.941559      -28.692745
 C         -35.636719      -89.906837      -28.766640
 H         -34.133167      -91.998779      -26.574511
 H         -34.170250      -92.100853      -28.310825
 H         -32.262962      -88.835388      -28.541899
 H         -32.986137      -90.246170      -29.587667
 H         -35.797981      -90.108597      -26.638491
 H         -36.479946      -91.532280      -27.565449
 H         -34.619213      -88.174454      -29.514431
 H         -34.582325      -88.269524      -27.797150
 H         -36.573273      -89.295151      -28.741146
 H         -35.701447      -90.543701      -29.638985
