20
 generated by VMD
 C         -78.856186     -207.961090      -76.407227
 N         -78.461365     -207.809952      -75.310364
 H         -79.445107     -210.029282      -73.451714
 H         -79.341736     -208.202667      -77.418808
 C         -78.855682     -210.165131      -72.522217
 C         -77.482941     -209.433960      -72.345123
 C         -78.902054     -211.266083      -71.501129
 C         -77.075058     -209.080093      -70.966591
 C         -78.577705     -210.910202      -70.053635
 C         -77.263855     -210.260330      -70.013733
 H         -77.521309     -208.457321      -72.850822
 H         -76.650635     -210.108231      -72.759048
 H         -79.822495     -211.872208      -71.417450
 H         -78.121437     -211.990005      -71.906654
 H         -77.682281     -208.179901      -70.598228
 H         -75.989105     -208.849991      -70.898460
 H         -78.803986     -211.865784      -69.451004
 H         -79.236511     -210.211868      -69.647278
 H         -77.280632     -209.916473      -68.970551
 H         -76.398933     -210.964539      -70.097664
