20
 generated by VMD
 C         -13.490010      -28.734833       -6.630263
 N         -13.184783      -28.823423       -7.699640
 H         -11.964890      -30.703646       -4.964551
 H         -10.464409      -29.805717       -4.471700
 C         -10.915019      -30.798933       -4.592658
 C         -10.110806      -31.537754       -5.587800
 C         -10.931865      -31.494478       -3.245056
 C          -8.686335      -31.806911       -5.096696
 C          -9.494473      -31.668732       -2.706697
 C          -8.629733      -32.458530       -3.697798
 H          -9.933297      -31.069727       -6.619916
 H         -10.599372      -32.497585       -5.790503
 H         -11.568562      -30.958857       -2.485528
 H         -11.367220      -32.519424       -3.387300
 H          -8.248970      -30.777475       -5.040819
 H          -8.064841      -32.422916       -5.801143
 H          -9.598767      -32.129730       -1.772424
 H          -9.035563      -30.646046       -2.501354
 H          -7.612958      -32.543816       -3.358435
 H          -9.129889      -33.413311       -3.826812
