20
 generated by VMD
 C         -12.724635      -27.619644       -2.617513
 N         -13.803040      -27.401438       -2.833818
 H         -10.559765      -27.361303       -3.584664
 H          -9.658946      -26.626335       -4.890906
 C          -9.547343      -27.245293       -4.012605
 C          -8.972504      -28.581913       -4.460612
 C          -8.725882      -26.538105       -2.871359
 C          -7.498372      -28.472040       -4.787049
 C          -7.218706      -26.426971       -3.221567
 C          -6.621776      -27.790407       -3.660770
 H          -9.426304      -28.849710       -5.376450
 H          -9.230792      -29.347744       -3.649069
 H          -9.168281      -25.546013       -2.829391
 H          -8.865479      -27.135822       -1.936226
 H          -7.258297      -28.006365       -5.792819
 H          -7.142880      -29.522861       -4.844647
 H          -6.681484      -26.146580       -2.288693
 H          -7.004141      -25.643576       -3.959376
 H          -5.624693      -27.621237       -4.025064
 H          -6.407548      -28.390224       -2.757855
