20
 generated by VMD
 C         -63.459137     -174.684052      -56.142647
 N         -62.296703     -174.725006      -56.145245
 H         -66.117126     -173.004456      -58.142296
 H         -64.520012     -174.479156      -56.219353
 C         -65.306313     -172.352676      -58.403114
 C         -65.515045     -171.011734      -58.020657
 C         -64.606590     -172.774429      -59.596165
 C         -64.176933     -170.310562      -58.058136
 C         -63.358746     -171.912430      -59.929493
 C         -63.564205     -170.467133      -59.478973
 H         -65.898872     -171.030167      -57.027836
 H         -66.287643     -170.354630      -58.630993
 H         -64.206612     -173.876160      -59.386421
 H         -65.335526     -172.818192      -60.469494
 H         -63.433407     -170.751648      -57.256050
 H         -64.329666     -169.214157      -57.819313
 H         -63.250217     -172.015015      -61.031651
 H         -62.504391     -172.275696      -59.382153
 H         -62.619297     -169.879242      -59.493481
 H         -64.269615     -169.972580      -60.257683
