20
 generated by VMD
 C         -60.757072     -154.032150      -51.317410
 N         -61.327534     -154.317215      -52.229988
 H         -57.547050     -153.612427      -52.616928
 H         -60.156425     -153.792252      -50.491848
 C         -56.734924     -153.491577      -51.902756
 C         -56.879429     -153.958282      -50.445827
 C         -55.661503     -152.522995      -52.316582
 C         -55.613304     -154.113037      -49.629074
 C         -54.430454     -152.808777      -51.601116
 C         -54.639095     -153.040146      -50.068142
 H         -57.452026     -154.934341      -50.324921
 H         -57.587971     -153.261856      -49.974720
 H         -55.479820     -152.748871      -53.349457
 H         -56.000572     -151.484161      -52.284214
 H         -55.069569     -155.081924      -49.781776
 H         -55.811192     -154.123932      -48.571598
 H         -53.512993     -152.142166      -51.805954
 H         -54.101803     -153.768814      -51.930183
 H         -53.658226     -153.346588      -49.737434
 H         -54.843582     -152.142181      -49.502167
