20
 generated by VMD
 C         -49.154968     -133.088898      -47.110401
 N         -48.257965     -133.109039      -47.814049
 H         -48.545383     -134.577911      -43.793758
 H         -49.835350     -132.738342      -46.383602
 C         -49.544529     -134.927994      -43.902218
 C         -49.754532     -136.260910      -44.385021
 C         -50.473579     -134.199860      -43.016121
 C         -50.222736     -137.165527      -43.240887
 C         -50.932335     -135.198517      -41.912888
 C         -51.419247     -136.477570      -42.481010
 H         -48.819885     -136.682358      -44.823566
 H         -50.535522     -136.264282      -45.153320
 H         -50.014381     -133.367340      -42.617523
 H         -51.353912     -133.901642      -43.575222
 H         -49.348911     -137.256454      -42.524586
 H         -50.364513     -138.139084      -43.614128
 H         -51.953045     -134.795425      -41.494038
 H         -50.170643     -135.142410      -41.052444
 H         -51.701763     -137.116425      -41.681892
 H         -52.237083     -136.216782      -43.300076
