20
 generated by VMD
 C         -21.905769      -55.379353      -17.338476
 N         -21.970444      -55.612991      -18.510729
 H         -22.342867      -57.221981      -14.402994
 H         -22.046188      -54.708008      -16.461332
 C         -21.382267      -57.843716      -14.244095
 C         -20.958834      -58.417103      -12.909970
 C         -20.257271      -57.929546      -15.287517
 C         -20.774061      -59.978638      -13.122260
 C         -20.151461      -59.418327      -15.532959
 C         -19.892687      -60.216553      -14.296509
 H         -21.724258      -58.203274      -12.150990
 H         -20.011707      -57.852757      -12.584504
 H         -20.458488      -57.327023      -16.124239
 H         -19.309198      -57.642284      -14.857323
 H         -21.714504      -60.315823      -13.485003
 H         -20.435305      -60.482067      -12.211909
 H         -19.423771      -59.666157      -16.294123
 H         -21.178328      -59.613235      -15.898288
 H         -19.836061      -61.237389      -14.657083
 H         -18.824310      -59.952637      -13.966294
