20
 generated by VMD
 C         -60.121254     -157.340073      -56.270363
 N         -59.500004     -158.337555      -56.562691
 H         -60.178520     -157.410675      -53.158630
 H         -60.714989     -156.453400      -56.148773
 C         -59.462612     -158.197571      -52.909744
 C         -58.079182     -157.955200      -52.348404
 C         -59.802608     -159.638718      -53.157150
 C         -57.778824     -158.915512      -51.070625
 C         -59.392326     -160.562531      -52.033123
 C         -57.945084     -160.326157      -51.490353
 H         -58.053844     -156.871490      -52.066174
 H         -57.486969     -158.268723      -53.149933
 H         -60.872448     -159.735016      -53.326920
 H         -59.434212     -159.874496      -54.160591
 H         -58.430603     -158.618118      -50.310635
 H         -56.814709     -158.661469      -50.691101
 H         -59.371117     -161.613541      -52.306820
 H         -60.094448     -160.500977      -51.274708
 H         -57.728882     -160.984604      -50.751007
 H         -57.284405     -160.446564      -52.380703
