20
 generated by VMD
 C         -30.874416      -75.734833      -22.746897
 N         -30.918016      -75.096848      -23.699099
 H         -29.031969      -78.433945      -21.553930
 H         -30.493134      -76.645020      -22.144506
 C         -28.034555      -77.977592      -21.601559
 C         -27.069221      -78.305809      -22.726562
 C         -27.492443      -77.293037      -20.434008
 C         -26.403109      -76.942917      -23.173094
 C         -26.845232      -75.954033      -20.826740
 C         -25.944639      -76.086723      -21.989716
 H         -27.602993      -78.819244      -23.680460
 H         -26.250725      -79.078461      -22.440903
 H         -28.261145      -77.130249      -19.553024
 H         -26.682220      -77.938141      -20.102819
 H         -27.122458      -76.375801      -23.754570
 H         -25.653633      -77.233849      -23.914207
 H         -26.437490      -75.449760      -20.004223
 H         -27.568502      -75.221237      -21.197866
 H         -25.742916      -75.079758      -22.357328
 H         -24.942377      -76.362534      -21.604265
