20
 generated by VMD
 C          -6.728429      -22.680777        2.052047
 N          -6.135888      -22.859495        2.989846
 H          -5.757049      -20.166876       -0.418106
 H          -7.131213      -21.013395       -0.215924
 C          -6.560746      -20.563377       -1.012743
 C          -5.972324      -21.613859       -1.984097
 C          -7.236663      -19.381897       -1.754125
 C          -7.017784      -22.034281       -2.956290
 C          -8.228689      -19.851685       -2.774456
 C          -7.650144      -20.882233       -3.673972
 H          -5.689204      -22.501072       -1.332690
 H          -5.107646      -21.209187       -2.540751
 H          -7.722054      -18.752743       -1.023183
 H          -6.367521      -18.834791       -2.137184
 H          -7.791248      -22.600796       -2.441261
 H          -6.598519      -22.733868       -3.669513
 H          -8.645409      -19.062401       -3.387260
 H          -9.091672      -20.159130       -2.193059
 H          -8.389293      -21.329130       -4.310592
 H          -6.900702      -20.395802       -4.270891
