20
 generated by VMD
 C         -27.568876      -81.151329      -27.357637
 N         -28.592598      -81.589821      -27.622805
 H         -30.346260      -83.351494      -25.688990
 H         -26.516632      -80.708061      -27.387096
 C         -30.771759      -84.089600      -24.977844
 C         -30.521582      -84.096062      -23.519215
 C         -31.351021      -85.303268      -25.515181
 C         -31.709093      -84.666641      -22.559137
 C         -32.691628      -85.713089      -24.843994
 C         -32.361069      -85.851280      -23.321630
 H         -30.241407      -83.109070      -23.084650
 H         -29.673185      -84.596527      -23.241209
 H         -31.340784      -85.004570      -26.537029
 H         -30.690886      -86.180084      -25.565300
 H         -32.488422      -83.853561      -22.584476
 H         -31.311424      -84.849663      -21.608042
 H         -33.102066      -86.588852      -25.243874
 H         -33.479507      -84.933678      -24.798244
 H         -33.288967      -86.055122      -22.779329
 H         -31.731604      -86.752213      -23.202250
