20
 generated by VMD
 C          -6.913212      -23.311565        2.684058
 N          -7.010855      -22.530552        1.912614
 H          -8.196380      -23.017021       -0.794798
 H          -9.224047      -22.340000       -2.066919
 C          -8.179919      -22.428087       -1.667298
 C          -7.206336      -23.179274       -2.629259
 C          -7.585935      -21.074516       -1.355455
 C          -7.003720      -22.378288       -3.920019
 C          -7.398232      -20.150713       -2.579074
 C          -6.503067      -20.886366       -3.695717
 H          -7.642481      -24.203005       -2.884280
 H          -6.286471      -23.332016       -2.089170
 H          -8.217806      -20.574408       -0.635264
 H          -6.610647      -21.131287       -0.817657
 H          -7.941429      -22.360235       -4.499989
 H          -6.393784      -22.923609       -4.643895
 H          -6.912870      -19.198275       -2.337163
 H          -8.382865      -19.824190       -2.961330
 H          -6.494864      -20.312037       -4.654492
 H          -5.471225      -20.832907       -3.309865
