20
 generated by VMD
 C         -21.031694      -52.485146      -11.460907
 N         -21.451271      -52.861725      -10.401055
 H         -19.587420      -50.082241      -13.728769
 H         -20.558903      -52.082863      -12.271635
 C         -18.781580      -50.680656      -13.330672
 C         -18.487610      -51.988548      -13.962806
 C         -18.033512      -50.290035      -12.085173
 C         -17.002560      -51.980892      -14.312984
 C         -16.554537      -50.280159      -12.358326
 C         -16.108227      -51.539833      -13.131883
 H         -19.044622      -52.208321      -14.841846
 H         -18.712912      -52.822746      -13.250896
 H         -18.197990      -49.213779      -11.788398
 H         -18.361889      -50.979908      -11.270644
 H         -16.878471      -51.162926      -15.072124
 H         -16.630062      -52.975632      -14.629324
 H         -16.060663      -50.294655      -11.419905
 H         -16.290947      -49.300152      -12.874406
 H         -15.080054      -51.519363      -13.410406
 H         -16.206251      -52.286537      -12.369091
