20
 generated by VMD
 C         -49.317760     -132.605103      -46.867123
 N         -50.223862     -131.865677      -47.148891
 H         -47.602581     -134.168060      -44.151138
 H         -48.435230     -133.264954      -46.882027
 C         -48.471550     -134.555695      -43.588902
 C         -49.097198     -135.882935      -43.842274
 C         -49.306702     -133.457352      -43.072407
 C         -49.903263     -136.334839      -42.695709
 C         -50.163815     -133.933548      -41.899937
 C         -50.902908     -135.279480      -42.190788
 H         -48.337761     -136.603485      -44.069801
 H         -49.791264     -135.813614      -44.768848
 H         -48.637337     -132.678741      -42.741245
 H         -49.896046     -133.090851      -43.979397
 H         -49.358639     -136.766541      -41.804977
 H         -50.527248     -137.209686      -42.980469
 H         -50.835670     -133.185852      -41.445461
 H         -49.437256     -134.183533      -41.156921
 H         -51.371895     -135.734955      -41.341167
 H         -51.558655     -135.031097      -43.030857
