20
 generated by VMD
 C         -47.678253     -139.542953      -45.899963
 N         -46.680328     -138.971130      -46.266468
 H         -50.893127     -138.548920      -45.005669
 H         -48.692276     -139.809143      -45.567410
 C         -51.854073     -138.964859      -45.254871
 C         -51.914745     -139.323853      -46.724369
 C         -53.099972     -138.790543      -44.456749
 C         -53.012756     -140.416367      -46.995094
 C         -54.237728     -139.716995      -44.842331
 C         -54.308113     -139.876175      -46.372356
 H         -50.844257     -139.644623      -47.012859
 H         -52.235466     -138.389145      -47.239929
 H         -52.910343     -138.977859      -43.357567
 H         -53.497570     -137.745972      -44.580116
 H         -52.833546     -141.445847      -46.622185
 H         -53.173012     -140.479919      -48.082783
 H         -55.114937     -139.189911      -44.503445
 H         -54.199280     -140.804535      -44.407917
 H         -55.121979     -140.623672      -46.547951
 H         -54.410992     -138.966171      -46.821404
