20
 generated by VMD
 C          -1.229791      -12.680578        1.251256
 N          -0.668712      -12.775381        0.258997
 H          -4.252269      -12.919101        1.331333
 H          -5.886256      -13.405011        0.749636
 C          -4.982628      -13.728831        1.196167
 C          -5.473091      -14.044623        2.574421
 C          -4.433758      -14.942584        0.481006
 C          -6.546476      -15.157446        2.582501
 C          -5.501240      -16.049160        0.458554
 C          -5.989880      -16.446693        1.831165
 H          -5.823367      -13.188725        3.148533
 H          -4.654730      -14.432860        3.135214
 H          -4.166210      -14.767708       -0.519128
 H          -3.620964      -15.352818        0.970746
 H          -7.519257      -14.822197        2.129435
 H          -6.712927      -15.456554        3.644891
 H          -5.080939      -16.923342       -0.057885
 H          -6.360633      -15.708199       -0.195236
 H          -6.843868      -17.119387        1.695242
 H          -5.244920      -16.979546        2.442161
