20
 generated by VMD
 C         -59.181374     -168.322083      -55.266758
 N         -58.290413     -168.876892      -54.836819
 H         -62.630440     -169.291489      -55.863091
 H         -60.053978     -167.772614      -55.570618
 C         -62.653595     -168.329132      -56.343910
 C         -62.706169     -168.256271      -57.900928
 C         -62.840023     -167.011337      -55.612537
 C         -64.041107     -167.572296      -58.207687
 C         -64.107239     -166.412094      -56.072353
 C         -64.189476     -166.251587      -57.553505
 H         -62.735680     -169.396957      -58.245590
 H         -61.887932     -167.772537      -58.227558
 H         -62.947281     -167.089798      -54.568951
 H         -61.937714     -166.404526      -55.707123
 H         -64.834099     -168.319275      -57.938679
 H         -64.006966     -167.537872      -59.314156
 H         -64.278915     -165.349854      -55.811543
 H         -65.017853     -167.122803      -55.795341
 H         -65.175179     -165.777313      -57.691860
 H         -63.525204     -165.486008      -57.964275
