20
 generated by VMD
 C         -68.849174     -185.883636      -66.190407
 N         -68.554779     -186.147095      -67.266373
 H         -69.612282     -183.004517      -63.524872
 H         -69.032890     -185.674911      -65.108704
 C         -69.369789     -183.719559      -62.763172
 C         -70.330719     -184.844498      -62.701836
 C         -68.005699     -183.907867      -62.077728
 C         -70.154144     -185.749924      -61.530304
 C         -67.634689     -185.188141      -61.363735
 C         -68.685013     -186.311859      -61.541344
 H         -70.428192     -185.491653      -63.538513
 H         -71.340950     -184.439545      -62.588165
 H         -67.364296     -183.856705      -62.937401
 H         -67.853653     -183.003906      -61.484512
 H         -71.027008     -186.406555      -61.445946
 H         -70.128967     -185.289581      -60.541386
 H         -67.684166     -185.072922      -60.208408
 H         -66.588226     -185.406876      -61.646042
 H         -68.420853     -186.858215      -62.305801
 H         -68.626465     -187.033051      -60.719700
