20
 generated by VMD
 C         -28.157644      -82.370056      -26.798267
 N         -27.341814      -83.191780      -26.985394
 H         -31.177824      -84.131081      -26.612095
 H         -29.028038      -81.608612      -26.749050
 C         -31.633558      -84.778992      -25.845762
 C         -31.212984      -84.609329      -24.342148
 C         -32.193581      -86.124435      -26.182686
 C         -32.097454      -85.281311      -23.389305
 C         -33.102516      -86.733124      -25.177031
 C         -32.540710      -86.733803      -23.779861
 H         -31.023277      -83.591690      -24.155642
 H         -30.326305      -85.171631      -24.306568
 H         -32.467148      -86.173691      -27.202486
 H         -31.407078      -86.922157      -26.166168
 H         -33.060917      -84.727844      -23.189304
 H         -31.593588      -85.378159      -22.480003
 H         -33.309582      -87.797623      -25.417059
 H         -34.125233      -86.232712      -25.137121
 H         -33.366570      -86.942940      -23.039103
 H         -31.742933      -87.631882      -23.595676
