20
 generated by VMD
 C         -10.750955      -33.301971       -8.631077
 N         -11.492437      -33.472397       -9.421639
 H         -12.728963      -33.658916       -5.990312
 H         -12.980651      -34.638966       -4.594881
 C         -12.799453      -34.715988       -5.646472
 C         -11.505307      -35.397133       -5.927672
 C         -13.921021      -35.519642       -6.259233
 C         -11.453189      -36.850163       -5.489718
 C         -14.035602      -36.977016       -5.742636
 C         -12.656931      -37.636189       -5.979005
 H         -10.703038      -34.802803       -5.513927
 H         -11.340735      -35.448395       -7.020801
 H         -14.895013      -35.031963       -6.167578
 H         -13.823081      -35.670517       -7.343350
 H         -11.455324      -36.827557       -4.373890
 H         -10.508459      -37.271347       -5.891762
 H         -14.898643      -37.521824       -6.301504
 H         -14.242712      -36.960567       -4.705330
 H         -12.647440      -38.526688       -5.424023
 H         -12.596615      -37.962185       -7.022919
