20
 generated by VMD
 C          -2.004455      -15.420497        1.753399
 N          -1.647987      -15.319139        2.809915
 H          -4.001698      -16.268782        0.079923
 H          -4.724024      -17.205040       -1.171606
 C          -4.930442      -16.757557       -0.223590
 C          -6.007433      -15.727940       -0.336861
 C          -5.286102      -17.869730        0.759958
 C          -7.288603      -16.341049       -0.847188
 C          -6.598265      -18.550152        0.337463
 C          -7.745248      -17.549488       -0.044351
 H          -5.603314      -15.021301       -1.079986
 H          -6.171816      -15.217070        0.613535
 H          -4.419408      -18.602373        0.863626
 H          -5.385607      -17.333117        1.734916
 H          -6.994669      -16.683558       -1.838038
 H          -8.125594      -15.615225       -0.955207
 H          -7.017805      -19.223030        1.081355
 H          -6.385488      -19.178503       -0.579250
 H          -8.540211      -18.124363       -0.539021
 H          -8.189639      -17.164152        0.893622
