20
 generated by VMD
 C         -41.900978     -101.941353      -33.737335
 N         -40.744766     -101.902565      -34.034657
 H         -39.268951     -103.804771      -32.497684
 H         -42.865379     -102.188683      -33.425949
 C         -38.251488     -103.828178      -32.259174
 C         -37.058270     -103.444656      -33.133877
 C         -37.901482     -104.477272      -30.896118
 C         -35.799435     -103.067368      -32.353764
 C         -36.804169     -103.725533      -30.182631
 C         -35.568264     -103.843735      -31.111073
 H         -37.181293     -102.661812      -33.891579
 H         -36.869247     -104.325500      -33.711765
 H         -38.949406     -104.496025      -30.385534
 H         -37.623959     -105.498329      -30.961432
 H         -35.824589     -102.004990      -31.944975
 H         -34.934624     -103.077652      -33.090118
 H         -36.623814     -104.074532      -29.207310
 H         -36.979961     -102.623062      -30.107466
 H         -34.743362     -103.389168      -30.521551
 H         -35.381577     -104.935371      -31.263060
