20
 generated by VMD
 C         -11.587806      -41.880203       -6.105076
 N         -10.889626      -41.463589       -6.893330
 H         -14.580874      -41.255245       -8.437304
 H         -15.364642      -40.481316       -9.739175
 C         -15.288377      -41.533691       -9.228309
 C         -16.671274      -41.931770       -8.721205
 C         -14.555052      -42.506393      -10.191063
 C         -17.555674      -42.507484       -9.813446
 C         -15.541878      -42.918327      -11.280758
 C         -16.761267      -43.566048      -10.599993
 H         -17.217464      -41.084972       -8.184292
 H         -16.468451      -42.810532       -8.047999
 H         -13.671741      -42.117176      -10.698816
 H         -14.296206      -43.432629       -9.622593
 H         -17.857557      -41.662910      -10.388375
 H         -18.457605      -42.930874       -9.382749
 H         -15.018698      -43.618530      -12.012407
 H         -15.815633      -42.103741      -11.872628
 H         -17.423849      -44.011345      -11.341773
 H         -16.473978      -44.383278       -9.971156
