20
 generated by VMD
 C         -57.703587     -166.165771      -56.452919
 N         -58.214108     -166.915955      -55.770363
 H         -60.571377     -165.282440      -54.550842
 H         -57.274258     -165.345886      -57.045013
 C         -61.512928     -165.452179      -55.118404
 C         -61.808380     -166.730331      -55.803616
 C         -62.463814     -164.311661      -55.410694
 C         -63.234760     -167.145172      -55.925945
 C         -63.897701     -164.634293      -55.685398
 C         -64.079643     -165.909653      -56.530796
 H         -61.305531     -167.450729      -55.241524
 H         -61.084641     -166.770905      -56.668530
 H         -62.346119     -163.657761      -54.517746
 H         -62.117611     -163.728043      -56.250942
 H         -63.664581     -167.387070      -54.995720
 H         -63.190182     -167.996887      -56.622135
 H         -64.386230     -163.857193      -56.077694
 H         -64.481056     -164.693192      -54.829075
 H         -65.069267     -166.295471      -56.625504
 H         -63.693249     -165.747910      -57.513489
