20
 generated by VMD
 C         -30.762535      -92.782257      -26.289993
 N         -30.885212      -92.521133      -25.162354
 H         -32.523121      -90.448334      -26.512184
 H         -30.598978      -93.165092      -27.363976
 C         -33.260830      -90.508423      -27.297699
 C         -34.120667      -91.728523      -27.139677
 C         -33.210186      -89.653763      -28.445324
 C         -35.339905      -91.875443      -27.983301
 C         -34.476070      -89.738251      -29.276127
 C         -35.107216      -91.114693      -29.342188
 H         -34.169956      -91.749588      -26.046972
 H         -33.394333      -92.403725      -27.517427
 H         -33.017464      -88.614914      -28.187071
 H         -32.445328      -89.960518      -29.126295
 H         -36.119976      -91.288132      -27.565937
 H         -35.668953      -92.966034      -28.009438
 H         -34.376492      -89.369713      -30.343199
 H         -35.187954      -89.100441      -28.685705
 H         -36.097614      -90.954796      -29.885101
 H         -34.450150      -91.836639      -29.939390
