20
 generated by VMD
 C         -36.637772      -98.193176      -26.679190
 N         -37.766502      -98.338875      -26.851702
 H         -36.502220      -96.347984      -28.817495
 H         -35.563995      -98.060974      -26.709826
 C         -35.611389      -96.304764      -29.436264
 C         -35.457348      -97.028221      -30.738295
 C         -34.476341      -95.308395      -29.047432
 C         -35.137527      -96.112564      -31.881498
 C         -34.001514      -94.435287      -30.213430
 C         -33.931591      -95.185631      -31.496796
 H         -36.395462      -97.557243      -30.963259
 H         -34.736904      -97.885475      -30.555258
 H         -34.711369      -94.790520      -28.083609
 H         -33.522926      -95.805969      -28.927279
 H         -36.054092      -95.550613      -32.192459
 H         -34.848782      -96.806160      -32.732998
 H         -32.980877      -93.882774      -30.093784
 H         -34.722485      -93.689621      -30.439592
 H         -33.740040      -94.468590      -32.354958
 H         -32.906059      -95.854599      -31.392511
