20
 generated by VMD
 C         -18.321463      -49.085232       -7.689751
 N         -19.160805      -49.808949       -7.848536
 H         -16.218666      -47.297672      -10.035727
 H         -16.842476      -48.866299      -10.664503
 C         -16.461027      -47.849972      -10.979448
 C         -15.265904      -47.926910      -11.899203
 C         -17.627264      -47.098652      -11.646477
 C         -15.498322      -48.105095      -13.429384
 C         -17.990656      -47.831184      -12.995553
 C         -16.809845      -47.455811      -13.879341
 H         -14.571801      -48.770302      -11.619249
 H         -14.864737      -46.920876      -11.725867
 H         -18.438549      -47.205509      -10.951003
 H         -17.363380      -46.053051      -11.836553
 H         -15.609793      -49.182461      -13.648309
 H         -14.637411      -47.719273      -13.974700
 H         -18.954113      -47.467922      -13.427030
 H         -18.055141      -48.874989      -12.868817
 H         -17.033215      -47.767666      -14.928446
 H         -16.752335      -46.309082      -13.918006
