20
 generated by VMD
 C         -55.000435     -148.480621      -45.171696
 N         -54.539429     -148.723450      -44.136631
 H         -54.641338     -148.001328      -48.784851
 H         -55.426842     -148.375473      -46.194366
 C         -54.360107     -147.095200      -49.232292
 C         -53.212757     -146.927979      -50.130062
 C         -55.046310     -145.967636      -48.570393
 C         -53.258514     -145.669708      -51.030758
 C         -55.129879     -144.715668      -49.418308
 C         -53.834671     -144.354965      -50.098919
 H         -53.069809     -147.746750      -50.782986
 H         -52.322609     -147.004288      -49.489452
 H         -56.052395     -146.246811      -48.402328
 H         -54.601669     -145.729965      -47.609852
 H         -53.930923     -145.792725      -51.850109
 H         -52.268921     -145.377350      -51.330734
 H         -55.665855     -143.915405      -48.873035
 H         -55.737404     -145.044510      -50.221180
 H         -54.240360     -143.562515      -50.788837
 H         -53.014355     -144.260117      -49.364090
