20
 generated by VMD
 C         -63.953098     -175.038788      -55.933933
 N         -63.051380     -175.373154      -56.550686
 H         -65.976555     -173.653992      -58.586525
 H         -64.760284     -174.722229      -55.313049
 C         -65.361603     -172.806580      -58.894230
 C         -65.619377     -171.499268      -58.252377
 C         -64.464996     -173.076218      -60.037888
 C         -64.432594     -170.529404      -58.202564
 C         -63.172562     -172.392761      -59.709110
 C         -63.523880     -170.783905      -59.512402
 H         -65.943382     -171.635498      -57.119057
 H         -66.436432     -171.128159      -58.766113
 H         -64.404823     -174.185211      -60.063522
 H         -64.972733     -172.831436      -61.036442
 H         -63.734913     -170.796631      -57.395897
 H         -64.696739     -169.459961      -58.091373
 H         -62.475353     -172.412613      -60.570274
 H         -62.730083     -172.817978      -58.810596
 H         -62.583797     -170.253632      -59.424561
 H         -64.053139     -170.407730      -60.338062
