20
 generated by VMD
 C         -48.854469     -126.528091      -38.666691
 N         -49.573620     -127.449226      -38.488499
 H         -46.525246     -123.853790      -38.779884
 H         -48.153748     -125.724342      -38.947323
 C         -45.713821     -123.733376      -39.520756
 C         -44.433567     -124.512146      -39.651619
 C         -45.677952     -122.328430      -40.133587
 C         -44.059597     -124.598373      -41.104946
 C         -45.362396     -122.436111      -41.565273
 C         -43.997955     -123.172836      -41.807644
 H         -44.548244     -125.560806      -39.136070
 H         -43.528507     -124.125748      -39.197464
 H         -46.661240     -122.007660      -39.961021
 H         -45.085358     -121.589478      -39.532455
 H         -44.674156     -125.386803      -41.588718
 H         -43.006207     -124.933899      -41.230728
 H         -45.316471     -121.499054      -42.178425
 H         -46.161686     -122.886459      -42.171154
 H         -43.824085     -123.388039      -42.905285
 H         -43.095131     -122.672005      -41.529373
