20
 generated by VMD
 C         -58.330559     -159.040909      -57.981926
 N         -59.301281     -158.874252      -57.387699
 H         -59.543015     -159.749878      -54.302776
 H         -57.448032     -159.215286      -58.599667
 C         -59.479435     -160.785980      -53.865532
 C         -58.605965     -160.893005      -52.681461
 C         -60.693459     -161.739197      -54.010380
 C         -59.286610     -161.123154      -51.387650
 C         -61.450645     -161.642960      -52.710197
 C         -60.476440     -162.158356      -51.561527
 H         -57.887848     -160.135513      -52.450905
 H         -57.921833     -161.691376      -52.934887
 H         -61.420227     -161.406219      -54.871532
 H         -60.291527     -162.687271      -54.298340
 H         -59.783539     -160.097763      -51.113903
 H         -58.649113     -161.616013      -50.726292
 H         -62.256550     -162.413208      -52.793762
 H         -61.944469     -160.638672      -52.491165
 H         -61.146461     -162.277847      -50.597675
 H         -60.109318     -163.135422      -51.984917
