20
 generated by VMD
 C         -79.472740     -205.442184      -70.954231
 N         -80.577972     -205.688354      -71.143944
 H         -77.293472     -203.181320      -69.649231
 H         -78.510704     -205.277878      -70.536072
 C         -76.258530     -203.177673      -69.897675
 C         -75.350121     -202.001007      -70.212868
 C         -75.437027     -204.465302      -69.643921
 C         -73.774681     -202.128845      -70.457222
 C         -74.037827     -204.103729      -68.955849
 C         -73.185875     -203.475632      -70.079163
 H         -75.461548     -201.252106      -69.437920
 H         -75.692543     -201.557190      -71.170486
 H         -75.946114     -205.025818      -68.826286
 H         -75.316795     -205.091644      -70.544174
 H         -73.308960     -201.253204      -69.998199
 H         -73.582718     -201.855637      -71.522018
 H         -73.710419     -205.021622      -68.534180
 H         -74.140686     -203.365463      -68.085686
 H         -72.126190     -203.492325      -69.551880
 H         -73.203186     -204.143265      -70.976074
