20
 generated by VMD
 C         -41.739388     -102.253403      -33.954010
 N         -40.801369     -101.841278      -34.536827
 H         -39.237316     -103.669167      -32.575535
 H         -42.788208     -102.324493      -33.527287
 C         -38.310066     -103.920242      -32.139893
 C         -37.196411     -103.663345      -33.089626
 C         -38.120735     -104.743042      -30.946011
 C         -35.957661     -103.172424      -32.409138
 C         -36.866283     -104.312401      -30.177547
 C         -35.686279     -104.121407      -31.161293
 H         -37.419403     -102.835960      -33.769978
 H         -37.213409     -104.617996      -33.658451
 H         -39.100697     -104.743561      -30.334389
 H         -37.932167     -105.809227      -31.131704
 H         -36.087040     -102.214211      -31.856367
 H         -35.117584     -103.011932      -33.206932
 H         -36.590569     -105.190865      -29.484287
 H         -37.091759     -103.503990      -29.507332
 H         -34.883728     -103.619179      -30.522308
 H         -35.350143     -105.155807      -31.437162
