20
 generated by VMD
 C         -79.812584     -206.636536      -73.251053
 N         -79.610771     -206.258942      -74.319130
 H         -78.451805     -205.579880      -70.563873
 H         -79.667305     -206.990402      -72.237831
 C         -77.399429     -205.609116      -70.236153
 C         -76.310692     -204.847260      -71.020828
 C         -76.934456     -206.969864      -69.713188
 C         -74.885384     -204.974304      -70.454292
 C         -75.434227     -206.974960      -69.144905
 C         -74.530655     -206.398331      -70.201248
 H         -76.717300     -203.837311      -70.835144
 H         -76.291725     -205.086700      -72.027176
 H         -77.585411     -207.237442      -68.853683
 H         -77.026062     -207.837021      -70.400925
 H         -74.893555     -204.358139      -69.565315
 H         -74.242729     -204.474808      -71.153587
 H         -75.076660     -207.927597      -68.801414
 H         -75.480194     -206.431915      -68.169258
 H         -73.431549     -206.641525      -70.074829
 H         -74.768425     -206.869919      -71.145660
