20
 generated by VMD
 C         -53.032917     -147.385696      -45.529842
 N         -54.183258     -147.413284      -45.261440
 H         -54.699371     -147.570099      -48.090717
 H         -51.976746     -147.198166      -45.659836
 C         -54.459267     -146.667099      -48.587410
 C         -53.264954     -146.515854      -49.438305
 C         -55.127140     -145.445938      -48.031704
 C         -53.319675     -145.274124      -50.432987
 C         -55.239803     -144.186478      -48.902679
 C         -53.840405     -143.942001      -49.738911
 H         -53.153805     -147.456207      -50.024162
 H         -52.362759     -146.352356      -48.801365
 H         -56.053040     -145.513260      -47.501366
 H         -54.274101     -145.162567      -47.450871
 H         -54.023239     -145.546341      -51.120186
 H         -52.489292     -145.079269      -51.098244
 H         -55.559525     -143.336548      -48.293350
 H         -56.103466     -144.317627      -49.690536
 H         -54.120792     -143.124390      -50.465649
 H         -53.121132     -143.574448      -48.969074
