20
 generated by VMD
 C         -51.672867     -145.991150      -43.905941
 N         -51.504513     -146.417358      -44.944199
 H         -53.795898     -145.568649      -47.066067
 H         -51.726475     -145.521194      -42.980225
 C         -53.910801     -144.709045      -47.693909
 C         -52.899010     -144.603943      -48.763763
 C         -54.730572     -143.568726      -47.494759
 C         -53.386559     -143.955994      -49.997471
 C         -55.451527     -143.041977      -48.779724
 C         -54.353420     -142.797882      -49.837784
 H         -52.357159     -145.552963      -49.079948
 H         -52.114548     -143.958466      -48.479851
 H         -55.449036     -143.802582      -46.678997
 H         -54.262196     -142.638199      -47.024006
 H         -53.901073     -144.741898      -50.663460
 H         -52.509064     -143.611267      -50.661819
 H         -55.973381     -142.031143      -48.546997
 H         -56.280380     -143.603516      -49.290699
 H         -54.821091     -142.745987      -50.787834
 H         -53.705078     -141.907150      -49.617668
