20
 generated by VMD
 C         -79.407341     -205.503998      -70.880905
 N         -80.436729     -205.808731      -71.256905
 H         -76.598984     -203.313889      -71.283188
 H         -78.435440     -205.139587      -70.787231
 C         -76.154922     -203.288925      -70.320267
 C         -75.301239     -202.039902      -70.013947
 C         -75.760445     -204.485931      -69.648972
 C         -73.919899     -202.456863      -70.612106
 C         -74.306503     -204.383362      -69.109131
 C         -73.233498     -203.554092      -69.874161
 H         -75.168755     -201.748901      -68.920067
 H         -75.749481     -201.203262      -70.505905
 H         -76.409370     -204.589066      -68.783180
 H         -75.810760     -205.267426      -70.423172
 H         -73.221237     -201.631241      -70.414383
 H         -74.000717     -202.663452      -71.658318
 H         -73.889091     -205.354019      -69.110489
 H         -74.413788     -204.053101      -68.031021
 H         -72.608345     -203.102951      -69.225212
 H         -72.633156     -204.221176      -70.474609
