20
 generated by VMD
 C         -22.368666      -68.140221      -16.593178
 N         -21.906507      -68.387665      -15.568293
 H         -24.061806      -66.586464      -18.075640
 H         -22.974289      -68.028435      -17.566376
 C         -24.678493      -66.446289      -18.916262
 C         -23.961861      -67.131363      -20.133377
 C         -26.175776      -66.530113      -18.938404
 C         -24.431353      -68.586327      -20.380869
 C         -26.638561      -68.029335      -19.148590
 C         -25.945269      -68.642555      -20.300709
 H         -22.799902      -67.173553      -19.900442
 H         -24.021875      -66.460999      -21.064423
 H         -26.599154      -66.172180      -17.970739
 H         -26.659197      -65.854927      -19.599089
 H         -24.130293      -69.262451      -19.514017
 H         -23.972288      -68.979568      -21.300968
 H         -27.767443      -67.919762      -19.375050
 H         -26.492754      -68.583031      -18.170244
 H         -26.166304      -69.714798      -20.380945
 H         -26.415842      -68.258842      -21.185671
