20
 generated by VMD
 C         -50.259789     -129.366257      -43.118504
 N         -50.570908     -128.319153      -43.414387
 H         -48.498905     -128.162979      -39.846977
 H         -50.190693     -130.340714      -42.676849
 C         -47.577721     -127.965591      -40.332893
 C         -46.441601     -128.879913      -39.917625
 C         -47.263409     -126.587471      -41.030346
 C         -45.522003     -129.093506      -41.098446
 C         -46.274788     -126.831909      -42.161781
 C         -45.137226     -127.665855      -41.526424
 H         -46.778389     -129.835159      -39.371582
 H         -45.898869     -128.360077      -39.111164
 H         -48.133717     -126.049583      -41.451782
 H         -46.859074     -125.943825      -40.285862
 H         -46.024609     -129.560547      -41.925762
 H         -44.612473     -129.552216      -40.740879
 H         -45.803932     -125.931435      -42.414604
 H         -46.659798     -127.340561      -43.045200
 H         -44.327068     -127.852501      -42.200016
 H         -44.677490     -127.141655      -40.629818
