20
 generated by VMD
 C         -23.749863      -69.437927      -16.849144
 N         -24.152414      -69.905312      -15.853314
 H         -23.729227      -66.680374      -18.749744
 H         -23.579588      -69.067032      -17.893883
 C         -24.366161      -67.464729      -19.256235
 C         -23.888735      -68.247765      -20.500511
 C         -25.881699      -67.444046      -19.246834
 C         -24.588156      -69.697853      -20.800650
 C         -26.609989      -68.743538      -19.672424
 C         -26.104465      -69.476616      -20.912731
 H         -22.839876      -68.487587      -20.479773
 H         -24.109596      -67.464455      -21.427784
 H         -26.302271      -67.326668      -18.242550
 H         -26.294556      -66.632683      -19.863054
 H         -24.459087      -70.390228      -19.966423
 H         -24.300772      -70.296478      -21.718323
 H         -27.631826      -68.397835      -19.802769
 H         -26.430452      -69.304832      -18.770527
 H         -26.587824      -70.473335      -21.132744
 H         -26.300438      -68.966965      -21.867508
