20
 generated by VMD
 C         -23.003052      -53.468876      -13.859923
 N         -23.713226      -52.893238      -14.541477
 H         -20.390957      -55.021915      -14.810392
 H         -22.534027      -54.047024      -13.275779
 C         -19.745361      -55.024376      -14.066315
 C         -19.171406      -53.705914      -13.767608
 C         -18.730932      -56.121910      -14.342282
 C         -17.972998      -53.788990      -12.840185
 C         -17.420225      -56.250416      -13.544708
 C         -16.886292      -54.833500      -13.255511
 H         -19.947086      -53.098923      -13.271765
 H         -18.958307      -53.313065      -14.811921
 H         -19.274105      -57.147392      -14.339072
 H         -18.440071      -55.960613      -15.390657
 H         -18.215197      -53.995819      -11.783935
 H         -17.490953      -52.799759      -12.908134
 H         -16.585068      -56.809593      -14.043533
 H         -17.629339      -56.793545      -12.628052
 H         -16.216396      -54.964626      -12.388894
 H         -16.372120      -54.401157      -14.105430
