20
 generated by VMD
 C          -2.637892      -16.840096        2.824546
 N          -2.100805      -16.897593        1.847492
 H          -4.579203      -16.001085        0.303650
 H          -4.480655      -17.361547       -0.858278
 C          -5.148460      -16.770775       -0.170494
 C          -6.256262      -16.144459       -0.997606
 C          -5.684792      -17.747414        0.828903
 C          -7.239156      -17.194187       -1.570405
 C          -6.591900      -18.829548        0.210683
 C          -7.727644      -18.165825       -0.482769
 H          -5.904536      -15.394040       -1.747614
 H          -6.829380      -15.550516       -0.286125
 H          -4.988428      -18.187769        1.525331
 H          -6.346820      -17.286991        1.568669
 H          -6.880376      -17.818642       -2.432871
 H          -8.142314      -16.633495       -1.878932
 H          -6.958617      -19.431826        1.057100
 H          -5.999858      -19.510130       -0.416525
 H          -8.272656      -18.906736       -1.034128
 H          -8.394220      -17.648455        0.211388
