20
 generated by VMD
 C         -67.873871     -185.201492      -68.081383
 N         -67.592064     -185.594452      -67.036613
 H         -69.802597     -185.701172      -64.634956
 H         -68.107719     -184.706589      -69.050697
 C         -69.881187     -186.027054      -63.594997
 C         -70.976997     -185.523438      -62.654243
 C         -69.121773     -187.269562      -63.050297
 C         -70.204315     -185.173935      -61.290379
 C         -68.727585     -187.225632      -61.577789
 C         -69.686020     -186.505356      -60.698887
 H         -71.669182     -186.276855      -62.360008
 H         -71.365311     -184.573914      -63.013466
 H         -69.829636     -188.092239      -63.167248
 H         -68.215889     -187.322800      -63.656071
 H         -70.909462     -184.770126      -60.575302
 H         -69.331802     -184.512909      -61.467918
 H         -67.803780     -186.691238      -61.479137
 H         -68.596275     -188.296249      -61.376236
 H         -70.438568     -187.199432      -60.460384
 H         -69.294716     -186.159012      -59.749512
