20
 generated by VMD
 C         -42.652439     -120.669601      -35.223259
 N         -42.566025     -121.116570      -34.140572
 H         -43.839630     -120.901421      -38.194439
 H         -42.823261     -120.048592      -36.138813
 C         -43.932098     -119.802361      -38.423031
 C         -43.084732     -119.236244      -39.528996
 C         -45.256256     -119.039528      -38.107887
 C         -43.921867     -119.013733      -40.768047
 C         -45.972286     -118.678757      -39.429501
 C         -45.038780     -118.012604      -40.414581
 H         -42.396145     -120.067589      -39.687042
 H         -42.579788     -118.428162      -39.202358
 H         -45.837852     -119.784691      -37.526653
 H         -45.092293     -118.128227      -37.600296
 H         -44.469929     -119.847382      -41.220333
 H         -43.245766     -118.431320      -41.512806
 H         -46.786449     -118.008499      -38.982853
 H         -46.424862     -119.578896      -39.828537
 H         -45.661510     -117.831017      -41.301834
 H         -44.746738     -117.057701      -40.081799
