20
 generated by VMD
 C         -60.795528     -153.298660      -52.368729
 N         -60.994038     -153.426437      -51.221535
 H         -57.437805     -154.061157      -51.142925
 H         -60.652164     -153.093933      -53.408276
 C         -56.700237     -153.348709      -50.770943
 C         -55.808846     -153.765411      -49.581585
 C         -56.372444     -152.114868      -51.541542
 C         -54.337658     -153.379272      -49.829174
 C         -54.908340     -151.887833      -51.715099
 C         -54.171463     -151.954224      -50.415852
 H         -55.774578     -154.855072      -49.414097
 H         -56.252899     -153.195084      -48.749844
 H         -56.919201     -151.934464      -52.457195
 H         -56.744850     -151.256729      -50.904613
 H         -53.877750     -154.078171      -50.546318
 H         -53.912876     -153.526215      -48.885895
 H         -54.719334     -150.788773      -52.082504
 H         -54.455273     -152.502884      -52.427002
 H         -53.161240     -151.677368      -50.592030
 H         -54.484695     -151.263535      -49.623276
