20
 generated by VMD
 C         -19.321131      -61.496223      -16.165077
 N         -20.059473      -60.916939      -16.836302
 H         -21.862799      -62.865368      -17.986776
 H         -18.794563      -62.112717      -15.377321
 C         -22.712862      -63.544041      -17.715311
 C         -23.897112      -63.536884      -18.674471
 C         -23.104712      -63.471283      -16.278954
 C         -24.808893      -64.746628      -18.445965
 C         -23.949055      -64.757812      -16.034418
 C         -25.138538      -64.890244      -17.008677
 H         -23.539827      -63.475945      -19.667629
 H         -24.465645      -62.642403      -18.376804
 H         -22.283281      -63.556942      -15.603374
 H         -23.582930      -62.456165      -16.151493
 H         -24.375929      -65.632843      -18.951963
 H         -25.697947      -64.505798      -19.056934
 H         -24.253311      -64.690834      -15.015419
 H         -23.256210      -65.605545      -16.198282
 H         -25.649775      -65.848206      -16.898909
 H         -25.843298      -64.008942      -16.849838
