20
 generated by VMD
 C         -52.566101     -147.087067      -45.344223
 N         -53.517639     -147.367661      -44.803883
 H         -54.704865     -147.203995      -47.842148
 H         -51.631397     -146.662003      -45.734657
 C         -54.493156     -146.302277      -48.471497
 C         -53.289009     -146.253067      -49.419029
 C         -55.322491     -145.097198      -48.099030
 C         -53.413479     -145.007523      -50.304882
 C         -55.248287     -143.902176      -49.097332
 C         -53.793472     -143.712952      -49.615402
 H         -53.324184     -147.170578      -49.970512
 H         -52.356270     -146.302811      -48.762199
 H         -56.320011     -145.349854      -47.904232
 H         -55.049858     -144.781006      -47.033009
 H         -54.233604     -145.365173      -50.870384
 H         -52.589626     -144.865417      -51.000904
 H         -55.471848     -142.998657      -48.603233
 H         -56.039295     -144.067596      -49.982468
 H         -53.484470     -142.797165      -50.219574
 H         -53.199287     -143.570633      -48.642418
