20
 generated by VMD
 C         -50.434109     -131.965790      -46.988647
 N         -49.941566     -132.384262      -48.018093
 H         -48.597404     -131.538010      -43.711300
 H         -50.891148     -131.194443      -46.374222
 C         -48.698303     -132.446930      -43.049557
 C         -49.422771     -133.564987      -43.611515
 C         -48.622967     -132.204285      -41.567493
 C         -49.259949     -134.863068      -42.873970
 C         -48.457340     -133.589523      -40.838650
 C         -49.433655     -134.650467      -41.366707
 H         -49.069462     -133.803574      -44.571312
 H         -50.507977     -133.443832      -43.646252
 H         -47.868053     -131.494171      -41.371258
 H         -49.504623     -131.674194      -41.096176
 H         -48.203712     -135.140839      -42.967117
 H         -49.932606     -135.675232      -43.162891
 H         -48.660275     -133.439636      -39.691990
 H         -47.405823     -133.844360      -40.843567
 H         -49.393402     -135.542480      -40.752037
 H         -50.363716     -134.190796      -41.042145
