20
 generated by VMD
 C          -7.058109      -23.237663        2.834360
 N          -6.156216      -22.622469        2.646724
 H          -6.571468      -21.328562       -0.195544
 H          -8.143099      -21.841331       -0.811881
 C          -7.177285      -21.348616       -1.164191
 C          -6.383681      -22.219435       -2.124434
 C          -7.312883      -19.941929       -1.596213
 C          -7.096944      -22.156988       -3.501915
 C          -7.974737      -19.877060       -2.934385
 C          -7.211440      -20.722042       -3.970030
 H          -6.459750      -23.233582       -1.748713
 H          -5.367085      -21.846979       -2.254935
 H          -7.950186      -19.391344       -0.965713
 H          -6.375429      -19.350424       -1.514264
 H          -8.112788      -22.624649       -3.424204
 H          -6.508583      -22.779375       -4.190763
 H          -7.978561      -18.860184       -3.345006
 H          -9.051758      -20.075905       -2.779783
 H          -7.695716      -20.691109       -4.977107
 H          -6.218503      -20.179762       -4.044534
