20
 generated by VMD
 C         -79.322990     -205.928162      -74.511909
 N         -79.309120     -206.715652      -73.613380
 H         -78.719696     -206.199661      -70.709053
 H         -79.405396     -205.325302      -75.453827
 C         -77.661240     -206.400986      -70.401627
 C         -76.665939     -205.634964      -71.386108
 C         -77.277534     -207.793137      -69.829330
 C         -75.392845     -205.588196      -70.616020
 C         -75.887428     -207.617096      -69.257965
 C         -74.861267     -206.922485      -70.113106
 H         -77.224022     -204.797119      -71.698067
 H         -76.427063     -206.199829      -72.229240
 H         -78.019470     -208.155502      -69.128387
 H         -77.327057     -208.450394      -70.728516
 H         -75.447754     -204.868164      -69.803947
 H         -74.712204     -205.222290      -71.405922
 H         -75.395691     -208.657120      -69.044823
 H         -75.909798     -207.157104      -68.294693
 H         -74.017334     -206.629105      -69.451454
 H         -74.516502     -207.537460      -71.004364
