20
 generated by VMD
 C         -47.313423     -138.733475      -45.669868
 N         -46.938335     -138.444199      -46.711388
 H         -50.730740     -138.063095      -44.756561
 H         -47.686642     -139.248642      -44.776546
 C         -51.641632     -138.550323      -45.109394
 C         -51.736191     -139.153488      -46.550114
 C         -52.854420     -138.342789      -44.246338
 C         -52.864185     -140.166992      -46.745094
 C         -54.047424     -139.330261      -44.513000
 C         -54.220310     -139.515640      -46.051258
 H         -50.851166     -139.770737      -46.634064
 H         -51.724602     -138.320267      -47.198051
 H         -52.481091     -138.427994      -43.170776
 H         -53.116501     -137.271606      -44.499031
 H         -52.702339     -141.154785      -46.333164
 H         -53.052448     -140.226151      -47.810993
 H         -54.988182     -139.016815      -44.201252
 H         -53.620941     -140.281296      -44.083153
 H         -55.012699     -140.158127      -46.286983
 H         -54.233807     -138.449570      -46.462929
