20
 generated by VMD
 C         -20.941389      -52.227650       -9.606473
 N         -21.345686      -52.386265      -10.730414
 H         -19.312977      -50.077877      -12.021273
 H         -20.879557      -52.372440       -8.609975
 C         -18.265526      -50.067654      -12.238993
 C         -17.821033      -51.431927      -12.639573
 C         -17.306658      -48.888321      -12.214635
 C         -16.847281      -51.370674      -13.778670
 C         -16.504486      -48.839409      -13.489029
 C         -15.844045      -50.191200      -13.723762
 H         -18.736591      -51.984192      -12.947080
 H         -17.419571      -51.987156      -11.831001
 H         -17.840620      -47.954002      -12.221099
 H         -16.565128      -48.977585      -11.385092
 H         -17.427769      -51.352898      -14.724528
 H         -16.277729      -52.320099      -13.855060
 H         -15.895955      -48.004288      -13.488508
 H         -17.193800      -48.723560      -14.370397
 H         -15.310178      -50.295506      -14.705525
 H         -15.126670      -50.401573      -12.878630
