20
 generated by VMD
 C         -22.393404      -67.629517      -16.150158
 N         -21.257534      -67.496353      -16.024818
 H         -23.828182      -65.633057      -17.994898
 H         -23.525354      -67.712677      -16.456900
 C         -24.490215      -66.363960      -18.568153
 C         -23.855379      -66.864227      -19.888777
 C         -25.964388      -66.443291      -18.548506
 C         -24.515331      -68.129173      -20.441591
 C         -26.427744      -67.868767      -18.899679
 C         -26.081182      -68.262222      -20.323341
 H         -22.851696      -67.087021      -19.830158
 H         -23.804405      -65.978508      -20.598354
 H         -26.312485      -66.183884      -17.491894
 H         -26.425793      -65.827827      -19.348438
 H         -24.209663      -69.002457      -19.822363
 H         -24.221113      -68.284233      -21.481220
 H         -27.502544      -67.758842      -18.788530
 H         -26.021975      -68.470650      -18.101561
 H         -26.437672      -69.241997      -20.731909
 H         -26.510334      -67.547829      -21.031176
