20
 generated by VMD
 C         -13.733997      -42.864063       -5.960402
 N         -12.877521      -43.205364       -6.592339
 H         -14.974558      -45.110142       -8.947218
 H         -14.464252      -43.646824       -9.790620
 C         -15.246281      -44.433414       -9.714168
 C         -16.487381      -43.583767       -9.337722
 C         -15.319192      -45.142548      -11.059451
 C         -16.875635      -42.677547      -10.478394
 C         -15.815818      -44.253307      -12.266625
 C         -17.078169      -43.582199      -11.701607
 H         -16.252819      -42.936039       -8.472026
 H         -17.329775      -44.237656       -8.929488
 H         -14.356275      -45.580727      -11.291416
 H         -16.033966      -45.986927      -10.928477
 H         -16.089251      -41.928413      -10.639944
 H         -17.771296      -42.119820      -10.195577
 H         -16.031086      -44.819218      -13.147657
 H         -14.914338      -43.575855      -12.471258
 H         -17.519432      -43.081097      -12.505519
 H         -17.779932      -44.343826      -11.369514
