20
 generated by VMD
 C         -29.411057      -89.458519      -25.969004
 N         -29.551462      -88.640755      -25.153910
 H         -31.685717      -90.958549      -27.482046
 H         -29.538689      -90.293777      -26.731249
 C         -32.390434      -90.070831      -27.399502
 C         -33.397770      -90.189308      -26.263626
 C         -32.958488      -89.250092      -28.644230
 C         -34.255314      -88.943008      -25.927433
 C         -33.897633      -88.145821      -28.223791
 C         -34.919510      -88.627441      -27.260891
 H         -32.938576      -90.597336      -25.351084
 H         -33.996777      -91.119186      -26.533508
 H         -32.035397      -88.979729      -29.109751
 H         -33.469837      -89.962852      -29.227623
 H         -33.566998      -88.173874      -25.576633
 H         -34.954884      -89.276192      -25.267912
 H         -34.574345      -87.806229      -29.005978
 H         -33.364643      -87.281357      -27.871916
 H         -35.620716      -87.754158      -26.918999
 H         -35.659145      -89.404221      -27.497850
