20
 generated by VMD
 C         -78.777435     -209.315643      -76.757729
 N         -79.760376     -208.752106      -77.086746
 H         -78.168961     -208.986404      -72.840553
 H         -77.920135     -209.866119      -76.440849
 C         -77.999146     -209.915359      -72.292931
 C         -76.882378     -210.118149      -71.388550
 C         -79.155029     -210.818573      -72.362701
 C         -77.468941     -210.690338      -70.073059
 C         -79.477913     -211.657883      -71.233215
 C         -78.263466     -211.932449      -70.396210
 H         -76.397720     -209.166031      -71.204407
 H         -76.225639     -210.848862      -71.754662
 H         -80.006950     -210.257996      -72.768097
 H         -78.991684     -211.577133      -73.130493
 H         -77.980270     -209.949066      -69.471962
 H         -76.658356     -211.017258      -69.426956
 H         -80.035698     -212.653778      -71.426910
 H         -80.240891     -211.072845      -70.639160
 H         -78.659592     -212.081940      -69.375298
 H         -77.711472     -212.836182      -70.795151
