20
 generated by VMD
 C         -70.278008     -182.704102      -65.597427
 N         -70.964813     -183.676025      -65.593521
 H         -68.014977     -181.776276      -63.046143
 H         -69.765106     -181.779266      -65.592522
 C         -67.581192     -181.683105      -62.080734
 C         -67.540367     -182.949493      -61.187035
 C         -66.989105     -180.395554      -61.623215
 C         -66.589607     -182.940323      -59.947960
 C         -65.938416     -180.628555      -60.489799
 C         -66.321815     -181.547043      -59.344170
 H         -67.247375     -183.863876      -61.636547
 H         -68.529739     -183.002197      -60.884235
 H         -66.648918     -179.816437      -62.516369
 H         -67.920555     -179.783661      -61.166290
 H         -65.638298     -183.371490      -60.380508
 H         -67.033882     -183.722137      -59.101643
 H         -65.658920     -179.723099      -59.946136
 H         -65.010971     -180.961472      -61.040329
 H         -65.588684     -181.771515      -58.638622
 H         -67.166779     -181.231567      -58.686829
