20
 generated by VMD
 C         -10.197701      -36.016273       -8.808577
 N         -10.125584      -34.885677       -8.978068
 H         -13.210833      -37.078651       -6.550544
 H         -14.481182      -37.762379       -5.570190
 C         -13.972104      -37.914944       -6.566936
 C         -13.042904      -39.125317       -6.600226
 C         -14.999937      -37.881470       -7.717489
 C         -13.894242      -40.347008       -6.671312
 C         -15.701165      -39.203503       -7.991991
 C         -14.735356      -40.364098       -7.924109
 H         -12.361416      -39.079777       -5.700572
 H         -12.316057      -39.109104       -7.492252
 H         -15.660600      -37.033470       -7.550340
 H         -14.486664      -37.508991       -8.615033
 H         -14.496113      -40.526310       -5.807518
 H         -13.267395      -41.292675       -6.656861
 H         -16.194723      -39.195774       -8.931396
 H         -16.485239      -39.331478       -7.226240
 H         -15.327667      -41.257927       -7.812947
 H         -14.168641      -40.430901       -8.865663
