20
 generated by VMD
 C         -51.798653     -129.860214      -45.238224
 N         -51.708054     -129.785095      -46.398514
 H         -48.588531     -130.269135      -43.394432
 H         -51.866413     -129.989502      -44.151001
 C         -47.877094     -130.265594      -42.473873
 C         -47.960194     -131.613525      -41.849388
 C         -47.411919     -129.099823      -41.654137
 C         -46.632408     -131.868958      -41.017654
 C         -46.150635     -129.500763      -40.917831
 C         -46.330334     -130.761536      -40.111031
 H         -47.990669     -132.407822      -42.689289
 H         -48.766048     -131.763474      -41.183746
 H         -47.040009     -128.224304      -42.228687
 H         -48.203930     -128.601822      -40.940155
 H         -45.923744     -131.960022      -41.898651
 H         -46.761761     -132.786896      -40.371250
 H         -45.833714     -128.821945      -40.080372
 H         -45.297440     -129.581909      -41.555824
 H         -45.359772     -130.893661      -39.583340
 H         -46.991085     -130.695526      -39.199471
