20
 generated by VMD
 C         -28.163490      -81.253090      -27.602657
 N         -29.315014      -81.104668      -27.461443
 H         -29.761692      -82.741653      -24.649534
 H         -27.039574      -81.459663      -27.749882
 C         -30.038607      -83.745697      -24.391640
 C         -30.153147      -83.891014      -22.916752
 C         -30.754929      -84.617874      -25.351027
 C         -31.486568      -84.259071      -22.426676
 C         -32.138962      -84.932434      -24.939968
 C         -32.262295      -85.316414      -23.339870
 H         -29.697241      -82.890083      -22.457273
 H         -29.512335      -84.709526      -22.566271
 H         -30.809727      -84.196312      -26.346626
 H         -30.090309      -85.503922      -25.483904
 H         -32.105434      -83.279816      -22.333050
 H         -31.203720      -84.726906      -21.454399
 H         -32.325302      -85.881981      -25.521099
 H         -32.945164      -84.143387      -25.276478
 H         -33.342930      -85.535553      -23.067869
 H         -31.748611      -86.320480      -23.341148
