20
 generated by VMD
 C         -30.605766      -75.806030      -22.869194
 N         -30.920521      -75.225632      -23.834604
 H         -28.921841      -78.807732      -21.413151
 H         -30.302820      -76.373543      -22.050369
 C         -28.092577      -78.090393      -21.555981
 C         -27.161959      -78.202667      -22.766968
 C         -27.571404      -77.398567      -20.435467
 C         -26.603107      -76.878960      -23.189774
 C         -26.842781      -76.093605      -20.808374
 C         -25.939772      -76.247520      -21.977283
 H         -27.870325      -78.578339      -23.519249
 H         -26.376005      -78.880348      -22.583927
 H         -28.422518      -77.213455      -19.684078
 H         -26.860729      -78.098816      -19.970331
 H         -27.377581      -76.201454      -23.510044
 H         -25.875311      -76.903656      -24.009007
 H         -26.265829      -75.601357      -20.021074
 H         -27.670862      -75.328072      -21.185440
 H         -25.679686      -75.233711      -22.236004
 H         -25.019196      -76.915306      -21.715223
