20
 generated by VMD
 C         -58.997005     -159.211807      -57.515816
 N         -58.318550     -160.179947      -57.821960
 H         -58.829884     -161.041336      -54.728279
 H         -59.653915     -158.372223      -57.296124
 C         -59.470081     -161.660843      -54.123974
 C         -58.879803     -161.963486      -52.729198
 C         -60.837761     -162.145309      -54.541573
 C         -59.958881     -161.779343      -51.545933
 C         -61.752567     -161.832947      -53.283245
 C         -61.244778     -162.424118      -51.923992
 H         -58.013638     -161.234665      -52.471344
 H         -58.253376     -162.915573      -52.836674
 H         -61.191917     -161.691345      -55.395741
 H         -60.684963     -163.261292      -54.670490
 H         -60.041451     -160.732224      -51.260353
 H         -59.427608     -162.332672      -50.704144
 H         -62.798828     -162.274078      -53.465466
 H         -61.818401     -160.778564      -52.899231
 H         -62.029430     -162.393585      -51.136677
 H         -61.038471     -163.514038      -52.086830
