20
 generated by VMD
 C         -59.299736     -152.216583      -50.746357
 N         -59.521297     -153.067062      -50.054344
 H         -57.111794     -151.257156      -48.988598
 H         -59.187641     -151.331650      -51.368412
 C         -56.073811     -151.031693      -49.262470
 C         -55.211418     -152.059143      -49.847603
 C         -55.523693     -149.614487      -49.384388
 C         -54.455414     -151.616013      -51.092529
 C         -54.709557     -149.123703      -50.548141
 C         -53.893139     -150.271515      -51.036648
 H         -55.832470     -152.883194      -50.180805
 H         -54.589054     -152.497055      -49.097645
 H         -56.274017     -148.871490      -49.041813
 H         -54.765629     -149.646881      -48.626541
 H         -55.104767     -151.765213      -51.966904
 H         -53.680748     -152.372162      -51.357758
 H         -54.059406     -148.272705      -50.066551
 H         -55.386787     -148.724838      -51.331779
 H         -53.524815     -150.127899      -52.056744
 H         -52.933380     -150.442352      -50.520981
