20
 generated by VMD
 C         -18.646233      -49.961510       -9.656825
 N         -19.484732      -50.711899       -9.510104
 H         -16.317657      -47.275112      -10.002971
 H         -17.714289      -49.163979       -9.469926
 C         -16.629900      -47.795238      -10.893496
 C         -15.742997      -48.810196      -11.483757
 C         -17.521421      -47.107647      -11.902337
 C         -16.391560      -49.713840      -12.535599
 C         -17.970278      -47.925816      -13.154449
 C         -16.871552      -48.875732      -13.743631
 H         -15.347651      -49.362717      -10.663722
 H         -14.924581      -48.279533      -12.010515
 H         -18.471207      -46.811871      -11.399514
 H         -17.017260      -46.167263      -12.198911
 H         -17.231485      -50.229275      -12.084512
 H         -15.676774      -50.486027      -12.868046
 H         -18.177420      -47.275352      -13.960606
 H         -18.958811      -48.481533      -12.865630
 H         -17.358164      -49.468231      -14.487774
 H         -16.106264      -48.351677      -14.233695
