20
 generated by VMD
 C         -67.977989     -178.756332      -58.143612
 N         -66.942932     -178.362640      -57.824291
 H         -65.234482     -176.064560      -58.470222
 H         -68.921547     -179.150391      -58.417141
 C         -65.167313     -175.745773      -59.544724
 C         -66.125389     -174.726807      -60.044773
 C         -63.739357     -175.733398      -59.835888
 C         -65.454727     -173.330032      -60.119354
 C         -63.104893     -174.414429      -59.748013
 C         -63.899742     -173.391129      -60.511478
 H         -67.171150     -174.656372      -59.505665
 H         -66.266365     -175.071426      -61.046169
 H         -63.089478     -176.391373      -59.114918
 H         -63.440739     -176.178314      -60.827698
 H         -65.417732     -173.181976      -59.054321
 H         -66.052910     -172.652710      -60.767136
 H         -62.122944     -174.668304      -60.012383
 H         -63.157066     -174.052322      -58.706963
 H         -63.535057     -172.305450      -60.349323
 H         -63.793400     -173.599716      -61.589264
