20
 generated by VMD
 C         -79.521301     -206.699692      -74.958961
 N         -80.081955     -206.138779      -74.119171
 H         -78.594597     -206.516403      -71.351501
 H         -79.224724     -207.297623      -75.753075
 C         -77.592316     -206.814590      -70.972603
 C         -76.343483     -206.097153      -71.415863
 C         -77.233810     -208.175491      -70.272530
 C         -75.288834     -205.921875      -70.262146
 C         -76.271294     -207.986374      -69.144348
 C         -75.061272     -207.321396      -69.680183
 H         -76.648857     -205.051804      -71.775024
 H         -75.724716     -206.508331      -72.222748
 H         -78.074524     -208.604248      -69.741096
 H         -76.897346     -208.961319      -70.941422
 H         -75.670456     -205.326035      -69.388229
 H         -74.335022     -205.504059      -70.740852
 H         -75.951569     -208.980103      -68.682076
 H         -76.731049     -207.392441      -68.396820
 H         -74.510941     -207.116821      -68.788651
 H         -74.488510     -207.997116      -70.458794
