20
 generated by VMD
 C         -66.012657     -177.811646      -56.908978
 N         -66.767441     -176.992523      -57.169685
 H         -64.345421     -175.672775      -58.720921
 H         -65.285210     -178.577515      -56.613037
 C         -64.372581     -174.740433      -59.124069
 C         -65.639877     -173.966019      -59.211525
 C         -63.491596     -174.481781      -60.295662
 C         -65.145439     -172.425293      -58.956238
 C         -63.202656     -172.975510      -60.391174
 C         -64.313217     -172.056900      -60.216404
 H         -66.314400     -174.336716      -58.410606
 H         -66.236168     -174.112717      -60.160561
 H         -62.555683     -175.011841      -60.181561
 H         -63.864025     -174.876663      -61.261356
 H         -64.640877     -172.293427      -57.978024
 H         -66.050781     -171.819733      -58.954819
 H         -62.756687     -172.616287      -61.295292
 H         -62.366245     -172.862595      -59.679520
 H         -63.997654     -170.929718      -60.146858
 H         -65.011330     -172.103729      -61.046375
