20
 generated by VMD
 C         -58.548050     -162.021759      -56.449257
 N         -57.441715     -161.606125      -56.368057
 H         -59.518276     -164.530869      -55.449123
 H         -59.613567     -162.358353      -56.440769
 C         -60.297371     -164.097000      -54.938431
 C         -60.111286     -163.766830      -53.546474
 C         -61.619968     -164.428223      -55.511665
 C         -61.206249     -162.734055      -53.143932
 C         -62.635769     -163.391205      -55.022354
 C         -62.635071     -162.996094      -53.535267
 H         -59.147240     -163.278839      -53.417019
 H         -60.106369     -164.584412      -52.915932
 H         -61.550564     -164.506149      -56.646606
 H         -61.997295     -165.332306      -55.071419
 H         -60.942898     -161.812668      -53.646839
 H         -61.203575     -162.630615      -52.044273
 H         -63.784306     -163.536285      -55.350880
 H         -62.420292     -162.423447      -55.507744
 H         -63.196289     -162.069901      -53.464657
 H         -63.146179     -163.824554      -52.994675
