20
 generated by VMD
 C          -1.227784      -12.932704        1.124690
 N          -0.573785      -12.878690        0.186176
 H          -4.081644      -13.104849        1.585637
 H          -5.618257      -13.216584        0.583221
 C          -4.958252      -13.734665        1.307333
 C          -5.788188      -14.102832        2.566499
 C          -4.450099      -15.002212        0.616336
 C          -6.711230      -15.329899        2.415238
 C          -5.429467      -16.087151        0.391934
 C          -5.997005      -16.505257        1.744966
 H          -6.208577      -13.169930        3.034188
 H          -5.074583      -14.339076        3.357382
 H          -3.985918      -14.593769       -0.300821
 H          -3.593688      -15.397102        1.268667
 H          -7.660804      -15.050672        1.994823
 H          -6.935250      -15.615517        3.454616
 H          -4.953321      -16.912710       -0.160760
 H          -6.233929      -15.733187       -0.253017
 H          -6.665203      -17.300489        1.524292
 H          -5.203316      -16.931723        2.324268
