20
 generated by VMD
 C         -72.849060     -198.981888      -65.601730
 N         -73.829102     -199.498947      -65.941185
 H         -71.072098     -196.458206      -67.297852
 H         -71.862755     -198.496735      -65.658493
 C         -72.101196     -196.509338      -67.654373
 C         -73.080582     -195.623093      -66.947098
 C         -72.426468     -196.959793      -69.037064
 C         -74.284378     -195.238098      -67.857231
 C         -73.925102     -197.360626      -69.260834
 C         -74.828949     -196.506592      -68.457695
 H         -72.414742     -194.678909      -66.734665
 H         -73.485611     -196.052551      -66.050285
 H         -72.083977     -196.130402      -69.707191
 H         -71.813980     -197.858765      -69.230331
 H         -74.078499     -194.449585      -68.575256
 H         -75.039314     -194.754471      -67.191948
 H         -74.023277     -198.411148      -68.835884
 H         -74.135841     -197.419769      -70.309189
 H         -75.582184     -196.229141      -69.253372
 H         -75.429626     -197.229111      -67.733215
