20
 generated by VMD
 C         -24.775745      -70.146065      -16.370813
 N         -24.780645      -70.805046      -15.439857
 H         -23.749622      -67.661446      -19.056643
 H         -24.636696      -69.554291      -17.334438
 C         -24.356995      -68.450104      -19.577379
 C         -23.882225      -69.010101      -20.903328
 C         -25.794662      -67.953072      -19.569950
 C         -24.760862      -70.117897      -21.400364
 C         -26.695015      -69.022865      -20.110821
 C         -26.131842      -69.655106      -21.439693
 H         -22.868122      -69.281380      -20.814631
 H         -23.792036      -68.181816      -21.652887
 H         -25.968803      -67.865005      -18.510223
 H         -25.860649      -67.104187      -20.151548
 H         -24.574732      -70.910515      -20.636646
 H         -24.448656      -70.380211      -22.406445
 H         -27.727161      -68.732269      -20.334763
 H         -26.791559      -69.851448      -19.359884
 H         -26.763802      -70.435570      -21.844660
 H         -26.313471      -68.877312      -22.167110
