20
 generated by VMD
 C         -66.727242     -177.901123      -56.969509
 N         -67.805992     -178.315247      -56.880646
 H         -64.383224     -176.228531      -59.529705
 H         -65.725616     -177.490921      -57.096775
 C         -64.269623     -175.171463      -59.650005
 C         -65.472382     -174.261139      -59.391617
 C         -63.156807     -174.461609      -60.396004
 C         -65.205322     -172.768875      -59.198650
 C         -63.028324     -173.011932      -60.366516
 C         -64.347618     -172.328430      -60.458447
 H         -66.177338     -174.707870      -58.576454
 H         -65.929573     -174.309174      -60.341518
 H         -62.209404     -174.980408      -60.014984
 H         -63.386944     -174.915726      -61.389633
 H         -64.558685     -172.745056      -58.321510
 H         -66.109177     -172.163055      -59.082661
 H         -62.450718     -172.662399      -61.172066
 H         -62.527370     -172.601166      -59.411896
 H         -64.203270     -171.282578      -60.433395
 H         -64.996941     -172.576828      -61.287704
