20
 generated by VMD
 C         -41.146519     -104.576225      -35.876076
 N         -42.093067     -104.938683      -36.455662
 H         -38.422325     -104.030388      -33.037594
 H         -40.173920     -104.510796      -35.440796
 C         -38.144341     -105.064400      -32.811817
 C         -36.855957     -105.439735      -32.134895
 C         -39.125286     -106.055717      -33.379181
 C         -37.116978     -106.695465      -31.104069
 C         -39.402710     -107.020561      -32.310032
 C         -38.128448     -107.679825      -31.716114
 H         -36.342766     -104.620049      -31.682711
 H         -36.300941     -105.872459      -32.888477
 H         -39.980343     -105.535416      -33.699883
 H         -38.720024     -106.587830      -34.324848
 H         -37.341923     -106.127563      -30.214485
 H         -36.168098     -107.239998      -30.849550
 H         -40.033703     -107.769485      -32.760227
 H         -40.093906     -106.557289      -31.579651
 H         -38.388088     -108.559875      -31.013815
 H         -37.687412     -108.126892      -32.571281
