20
 generated by VMD
 C         -21.578522      -65.522110      -17.117912
 N         -20.874170      -65.957031      -16.337698
 H         -24.018261      -63.796375      -18.056826
 H         -22.262884      -65.401802      -17.868807
 C         -24.250498      -64.791023      -18.238846
 C         -24.562967      -65.142738      -19.641216
 C         -25.249630      -65.506470      -17.323221
 C         -24.289738      -66.638672      -19.864693
 C         -24.919680      -67.053238      -17.440641
 C         -25.147516      -67.565178      -18.897486
 H         -23.908560      -64.408867      -20.269487
 H         -25.628065      -65.054787      -19.991533
 H         -25.287296      -65.105675      -16.338058
 H         -26.212173      -65.294197      -17.715471
 H         -23.245054      -66.770195      -19.634398
 H         -24.438896      -66.901039      -20.913656
 H         -25.513599      -67.696411      -16.799541
 H         -23.855358      -67.196541      -17.134878
 H         -24.931873      -68.634460      -18.932287
 H         -26.263912      -67.438866      -19.069870
