20
 generated by VMD
 C         -12.019170      -25.511663       -0.346148
 N         -12.986892      -26.033155       -0.092351
 H          -9.163905      -26.943729       -2.396547
 H          -9.518417      -25.888317       -3.849623
 C          -8.702177      -26.262941       -3.183498
 C          -7.692106      -27.116793       -3.903459
 C          -8.047963      -25.028961       -2.550473
 C          -6.764452      -26.324383       -4.862282
 C          -7.199691      -24.185869       -3.520372
 C          -6.224915      -25.063223       -4.296395
 H          -8.211707      -27.917898       -4.480908
 H          -7.001198      -27.675026       -3.219483
 H          -8.803823      -24.388144       -2.135639
 H          -7.459267      -25.354910       -1.642847
 H          -7.358806      -26.183731       -5.770501
 H          -5.889814      -26.949753       -5.158782
 H          -6.531859      -23.517281       -2.928392
 H          -7.816477      -23.601107       -4.224900
 H          -5.914141      -24.445105       -5.139673
 H          -5.337918      -25.335545       -3.651545
