20
 generated by VMD
 C         -57.217884     -150.979446      -48.408215
 N         -58.345711     -151.266708      -48.536362
 H         -54.242386     -148.710938      -47.318260
 H         -56.184399     -150.634430      -48.266254
 C         -54.407776     -148.658371      -48.371742
 C         -53.688530     -149.545883      -49.367538
 C         -54.571136     -147.136749      -48.729195
 C         -54.343895     -149.482697      -50.734665
 C         -55.217663     -147.069122      -50.162601
 C         -54.436405     -148.052368      -51.251511
 H         -53.714561     -150.571762      -48.907566
 H         -52.629505     -149.232101      -49.369057
 H         -55.225712     -146.634186      -48.005684
 H         -53.610424     -146.682068      -48.736633
 H         -55.319729     -149.959183      -50.536491
 H         -53.813038     -150.028748      -51.499767
 H         -54.969570     -146.059769      -50.628567
 H         -56.246937     -147.245209      -50.082748
 H         -55.095055     -147.979919      -52.086327
 H         -53.468071     -147.576492      -51.415573
