20
 generated by VMD
 C         -68.379768     -179.793793      -59.010670
 N         -68.200424     -180.058746      -60.125305
 H         -67.223999     -176.545044      -59.672916
 H         -68.569633     -179.648438      -57.980934
 C         -66.368301     -176.863831      -60.115894
 C         -66.110596     -176.407745      -61.458031
 C         -65.310074     -177.168106      -59.068905
 C         -65.060188     -175.279572      -61.306442
 C         -64.167610     -176.114212      -59.102131
 C         -63.757652     -175.705658      -60.540627
 H         -67.119354     -176.099258      -61.801067
 H         -65.620071     -177.215652      -62.108986
 H         -65.845345     -177.304626      -58.152256
 H         -64.940140     -178.197327      -59.417873
 H         -65.545410     -174.392212      -60.960930
 H         -64.757088     -175.095642      -62.383781
 H         -63.225986     -176.300278      -58.471539
 H         -64.551376     -175.170685      -58.638062
 H         -62.967556     -174.910416      -60.498287
 H         -63.388599     -176.707886      -61.037674
