20
 generated by VMD
 C         -35.134525      -97.842270      -25.967663
 N         -36.135242      -97.512314      -26.439144
 H         -35.646721      -95.174149      -27.846994
 H         -34.332424      -98.222549      -25.447653
 C         -35.278889      -94.981018      -28.867552
 C         -35.834904      -95.795624      -30.010260
 C         -34.114456      -94.110405      -29.063990
 C         -35.650852      -95.080070      -31.378750
 C         -33.738384      -93.517952      -30.365887
 C         -34.159054      -94.598732      -31.454859
 H         -36.915871      -95.774422      -29.973427
 H         -35.566277      -96.817902      -30.010710
 H         -34.220963      -93.481529      -28.208878
 H         -33.254013      -94.728134      -28.748158
 H         -36.422409      -94.285385      -31.600349
 H         -35.718864      -95.853836      -32.205936
 H         -32.722389      -93.195129      -30.575697
 H         -34.366131      -92.547447      -30.521551
 H         -34.131168      -94.018768      -32.444431
 H         -33.561798      -95.413879      -31.363371
