20
 generated by VMD
 C         -66.349251     -177.929581      -56.923622
 N         -67.472374     -177.740555      -57.008408
 H         -64.520531     -176.005951      -59.342106
 H         -65.280052     -178.110641      -56.704468
 C         -64.324837     -174.997955      -59.426022
 C         -65.485031     -174.123123      -59.169018
 C         -63.297081     -174.526978      -60.454170
 C         -65.274513     -172.610138      -59.239269
 C         -63.037930     -172.971466      -60.327812
 C         -64.315521     -172.171555      -60.343102
 H         -65.954803     -174.457458      -58.184856
 H         -66.129890     -174.349365      -60.003368
 H         -62.340157     -175.189362      -60.265232
 H         -63.651203     -174.700577      -61.533073
 H         -64.765755     -172.264877      -58.325813
 H         -66.274704     -172.205078      -59.349693
 H         -62.354675     -172.725815      -61.122311
 H         -62.578266     -172.664230      -59.367813
 H         -64.219063     -171.180725      -60.024578
 H         -64.838379     -172.145905      -61.337311
