20
 generated by VMD
 C         -40.265965      -99.700394      -28.989904
 N         -39.495464     -100.089310      -28.248482
 H         -37.403240      -99.125465      -30.548359
 H         -40.840851      -99.107117      -29.730360
 C         -36.479923      -98.532356      -30.714169
 C         -35.779377      -98.994530      -32.097553
 C         -35.492489      -98.559685      -29.583677
 C         -34.640255      -97.965866      -32.519821
 C         -34.303608      -97.539032      -29.946430
 C         -33.614216      -97.888428      -31.332392
 H         -36.638535      -99.120506      -32.774204
 H         -35.265755      -99.960838      -31.967768
 H         -35.883080      -98.213593      -28.604464
 H         -35.135384      -99.579842      -29.545996
 H         -35.098309      -97.045128      -32.845139
 H         -34.146931      -98.562187      -33.298748
 H         -33.598957      -97.525223      -29.092606
 H         -34.608318      -96.473152      -29.993578
 H         -32.814487      -97.176163      -31.631128
 H         -33.193775      -98.869530      -31.309935
