20
 generated by VMD
 C         -41.451653     -119.963326      -34.074265
 N         -41.840794     -120.798523      -34.807556
 H         -43.392643     -118.845917      -37.147354
 H         -41.355915     -119.128479      -33.327625
 C         -43.940174     -118.669838      -38.015656
 C         -43.065441     -118.537071      -39.256470
 C         -45.268131     -117.957497      -37.933243
 C         -43.845577     -118.702721      -40.521011
 C         -46.049446     -118.266602      -39.244793
 C         -45.200672     -117.960480      -40.448929
 H         -42.262478     -119.246361      -39.123123
 H         -42.391266     -117.577087      -39.220760
 H         -45.755669     -118.191750      -37.035042
 H         -45.190880     -116.857948      -37.947628
 H         -43.977020     -119.801193      -40.773045
 H         -43.268112     -118.272507      -41.331871
 H         -47.026356     -117.828758      -39.138149
 H         -46.245079     -119.304390      -39.326115
 H         -45.870655     -118.233528      -41.197952
 H         -45.139538     -116.894966      -40.604488
