20
 generated by VMD
 C         -40.131153     -116.920753      -34.455853
 N         -39.419380     -116.002831      -34.550758
 H         -41.281429     -116.088722      -37.922333
 H         -40.928928     -117.740799      -34.440941
 C         -42.413349     -116.123566      -37.909893
 C         -43.159168     -115.862236      -39.222782
 C         -43.267262     -115.899330      -36.696472
 C         -44.562229     -116.629250      -39.271400
 C         -44.612312     -116.707428      -36.739677
 C         -45.412731     -116.505836      -37.988815
 H         -42.586124     -116.245972      -40.100971
 H         -43.241814     -114.759743      -39.330013
 H         -42.564800     -116.280159      -35.857121
 H         -43.387489     -114.796196      -36.606426
 H         -44.233257     -117.633057      -39.432449
 H         -45.151882     -116.454758      -40.169067
 H         -45.056164     -116.479843      -35.756924
 H         -44.282265     -117.776077      -36.787029
 H         -46.170963     -117.249031      -37.965633
 H         -46.023560     -115.601746      -38.046162
