20
 generated by VMD
 C         -13.842055      -42.892921       -6.061496
 N         -12.897960      -43.389439       -6.354084
 H         -14.746480      -45.095783       -8.863055
 H         -14.275425      -43.827366       -9.963888
 C         -15.129243      -44.482903       -9.780104
 C         -16.361856      -43.698158       -9.462234
 C         -15.466382      -45.301685      -11.022870
 C         -16.965271      -42.780838      -10.582159
 C         -15.890017      -44.353004      -12.170609
 C         -17.140844      -43.496487      -11.910822
 H         -16.067383      -43.058704       -8.612093
 H         -17.117599      -44.277489       -8.998821
 H         -14.620517      -45.985226      -11.330496
 H         -16.255808      -46.067780      -10.798922
 H         -16.269861      -41.954090      -10.760859
 H         -17.902412      -42.304176      -10.281909
 H         -15.999129      -44.969208      -13.128375
 H         -15.157389      -43.626205      -12.356706
 H         -17.301857      -42.672318      -12.704919
 H         -18.004015      -44.202492      -11.908156
