20
 generated by VMD
 C         -71.161293     -198.908173      -64.495064
 N         -70.354485     -198.592636      -65.261337
 H         -72.518700     -196.621796      -66.415092
 H         -71.813675     -199.373932      -63.752678
 C         -73.008415     -195.919235      -67.071915
 C         -73.266258     -194.560059      -66.629662
 C         -73.605850     -196.451920      -68.308601
 C         -73.298782     -193.587784      -67.881897
 C         -74.784866     -195.517624      -68.747658
 C         -74.291458     -194.062027      -68.959137
 H         -72.544464     -194.190109      -65.896019
 H         -74.191833     -194.536179      -65.886574
 H         -72.736946     -196.473068      -69.011818
 H         -73.751579     -197.508835      -68.164642
 H         -72.331367     -193.340149      -68.329735
 H         -73.582245     -192.645523      -67.488754
 H         -75.435898     -195.661255      -67.908928
 H         -75.448952     -195.841599      -69.574554
 H         -73.731468     -194.022552      -69.980637
 H         -75.100838     -193.453934      -69.037758
