20
 generated by VMD
 C         -48.889778     -126.586716      -38.705204
 N         -49.604980     -127.440186      -38.469090
 H         -46.270973     -124.086212      -38.759220
 H         -48.237869     -125.761681      -38.753895
 C         -45.690769     -123.740402      -39.521519
 C         -44.469585     -124.512802      -39.717823
 C         -45.682331     -122.365501      -40.128677
 C         -44.012463     -124.602417      -41.129669
 C         -45.356716     -122.462608      -41.640213
 C         -44.019737     -123.210587      -41.766132
 H         -44.604492     -125.322472      -39.098293
 H         -43.703804     -123.942162      -39.090557
 H         -46.719986     -121.955025      -39.988178
 H         -44.901798     -121.829956      -39.587036
 H         -44.779045     -125.140678      -41.655609
 H         -43.029869     -125.061943      -41.146450
 H         -45.159325     -121.450005      -41.985710
 H         -46.120911     -123.057625      -42.084763
 H         -43.652718     -123.253395      -42.830830
 H         -43.333549     -122.507469      -41.182793
