20
 generated by VMD
 C         -30.578949      -93.949814      -25.937059
 N         -30.675802      -93.648911      -24.845423
 H         -33.834572      -92.998001      -26.917301
 H         -30.654448      -94.204140      -26.978516
 C         -34.207314      -92.533501      -27.777002
 C         -35.651356      -92.707420      -28.189440
 C         -33.376888      -92.156876      -28.954718
 C         -36.262226      -91.404312      -28.650520
 C         -33.969856      -90.963486      -29.736902
 C         -35.515343      -90.882324      -29.883675
 H         -36.148804      -92.992638      -27.184902
 H         -35.717854      -93.446480      -29.032637
 H         -32.277386      -92.045464      -28.764502
 H         -33.362671      -93.093269      -29.676447
 H         -36.198772      -90.608467      -27.879196
 H         -37.339798      -91.479576      -28.899788
 H         -33.411949      -90.893555      -30.727682
 H         -33.770679      -90.036568      -29.248871
 H         -35.902569      -89.873482      -30.254566
 H         -35.848331      -91.574188      -30.651583
