20
 generated by VMD
 C         -48.361084     -136.030060      -46.153801
 N         -47.250446     -136.151398      -45.868172
 H         -51.608013     -135.288879      -46.049992
 H         -49.411427     -135.938126      -46.263359
 C         -51.660408     -136.121826      -45.359318
 C         -52.246620     -137.311234      -45.964622
 C         -51.410492     -136.015625      -43.878006
 C         -51.833321     -138.612381      -45.255844
 C         -50.905563     -137.292175      -43.321507
 C         -51.890003     -138.438370      -43.771862
 H         -52.084900     -137.478546      -47.052193
 H         -53.349220     -137.195877      -45.953056
 H         -50.666351     -135.175659      -43.588032
 H         -52.315468     -135.748291      -43.285030
 H         -50.761627     -138.867935      -45.465733
 H         -52.586346     -139.403000      -45.659798
 H         -50.905903     -137.316696      -42.194588
 H         -49.887581     -137.483566      -43.685139
 H         -51.675926     -139.348694      -43.310844
 H         -52.861858     -138.191925      -43.568958
