20
 generated by VMD
 C         -28.328588      -81.289566      -27.643688
 N         -29.411911      -81.010971      -27.439178
 H         -29.152447      -82.988541      -24.699535
 H         -27.219734      -81.636238      -27.711231
 C         -29.988913      -83.516685      -24.271618
 C         -30.031887      -83.970749      -22.906006
 C         -30.567257      -84.421089      -25.240374
 C         -31.517063      -84.111069      -22.493658
 C         -32.064266      -84.798103      -24.843342
 C         -32.189308      -85.282623      -23.340820
 H         -29.604650      -83.343193      -22.235319
 H         -29.619520      -85.000610      -22.914597
 H         -30.442554      -83.915352      -26.234200
 H         -30.038507      -85.368370      -25.159401
 H         -32.111507      -83.221153      -22.615307
 H         -31.573036      -84.473923      -21.463511
 H         -32.244370      -85.634323      -25.509996
 H         -32.777985      -84.038605      -25.155064
 H         -33.217079      -85.493797      -23.027975
 H         -31.588886      -86.177299      -23.215786
