20
 generated by VMD
 C         -47.896595     -139.720810      -46.082012
 N         -46.827751     -139.464005      -45.900192
 H         -50.861336     -138.801254      -44.938393
 H         -48.837795     -140.241867      -46.265839
 C         -51.837585     -139.141876      -45.295570
 C         -51.955894     -139.425140      -46.779072
 C         -53.114044     -138.929916      -44.640320
 C         -53.061111     -140.423615      -47.178455
 C         -54.290684     -140.042526      -45.027164
 C         -54.467602     -140.169739      -46.488991
 H         -50.989532     -139.654617      -47.195354
 H         -52.260601     -138.508453      -47.339714
 H         -52.961781     -138.712631      -43.557232
 H         -53.566349     -137.937134      -44.917023
 H         -52.642040     -141.344131      -46.865231
 H         -53.133057     -140.428528      -48.294888
 H         -55.105118     -139.617599      -44.404343
 H         -54.042583     -141.076248      -44.688892
 H         -55.328514     -140.913239      -46.895164
 H         -54.766300     -139.227448      -46.986042
