20
 generated by VMD
 C         -49.567558     -141.554077      -45.708443
 N         -49.623447     -142.371933      -44.839352
 H         -51.639462     -138.546066      -46.286110
 H         -49.743111     -140.930939      -46.566063
 C         -52.256413     -139.489105      -46.494728
 C         -52.866257     -139.592545      -47.823349
 C         -52.928253     -140.235291      -45.318165
 C         -53.079727     -141.069641      -48.163311
 C         -53.291336     -141.567307      -45.768208
 C         -53.901596     -141.803238      -47.150948
 H         -52.027187     -139.235306      -48.470387
 H         -53.789062     -139.053421      -48.033844
 H         -52.299393     -140.346954      -44.424728
 H         -53.824966     -139.737381      -45.146568
 H         -52.054272     -141.681549      -48.230675
 H         -53.511669     -140.956436      -49.246628
 H         -54.045124     -142.012955      -45.092522
 H         -52.373493     -142.020020      -45.673599
 H         -53.821896     -142.906845      -47.382317
 H         -54.966560     -141.432175      -47.230995
