20
 generated by VMD
 C         -29.418550      -89.669907      -25.786335
 N         -29.524927      -88.575378      -25.347055
 H         -31.492929      -90.508286      -27.343147
 H         -29.422979      -90.568161      -26.295830
 C         -32.514763      -90.034698      -27.355257
 C         -33.483826      -90.460548      -26.321457
 C         -32.920761      -89.345055      -28.639526
 C         -34.380951      -89.202248      -26.022709
 C         -33.822086      -88.146568      -28.263021
 C         -34.950909      -88.513062      -27.271353
 H         -33.011005      -90.666534      -25.309378
 H         -34.164661      -91.324554      -26.719728
 H         -32.027069      -89.039421      -29.214060
 H         -33.570293      -89.866455      -29.337873
 H         -33.798965      -88.517700      -25.365690
 H         -35.220970      -89.404800      -25.327791
 H         -34.334297      -87.828644      -29.266590
 H         -33.286900      -87.226089      -27.930065
 H         -35.297760      -87.417030      -27.069960
 H         -35.748955      -89.156517      -27.771479
