20
 generated by VMD
 C         -21.594765      -65.527428      -17.154497
 N         -20.819849      -65.905556      -16.313923
 H         -23.984489      -63.833622      -17.853218
 H         -22.163752      -65.055908      -17.868681
 C         -24.323183      -64.743378      -18.232807
 C         -24.549959      -65.150040      -19.633326
 C         -25.185993      -65.523262      -17.360928
 C         -24.315935      -66.645767      -19.810434
 C         -24.894217      -67.066261      -17.432972
 C         -25.164881      -67.476479      -18.875320
 H         -23.933062      -64.521164      -20.333250
 H         -25.638311      -64.794960      -19.807266
 H         -25.208872      -65.097130      -16.285803
 H         -26.208456      -65.469887      -17.751141
 H         -23.299040      -66.792267      -19.553089
 H         -24.357710      -67.004112      -20.823057
 H         -25.439741      -67.515327      -16.647890
 H         -23.828119      -67.259300      -17.272305
 H         -24.840376      -68.463875      -19.071844
 H         -26.219870      -67.427628      -19.234247
