20
 generated by VMD
 C         -78.193115     -203.787125      -69.268600
 N         -79.106018     -204.243958      -69.775536
 H         -75.681335     -202.250977      -67.435715
 H         -77.229462     -203.380737      -68.942902
 C         -75.070229     -201.957367      -68.340660
 C         -75.114861     -200.459076      -68.674911
 C         -73.906456     -202.669571      -68.914360
 C         -74.732521     -200.233322      -70.277588
 C         -72.918495     -201.782639      -69.702927
 C         -73.600769     -201.209045      -70.826111
 H         -74.313927     -199.875900      -68.100220
 H         -76.076157     -200.066879      -68.438324
 H         -73.369362     -203.183823      -68.143456
 H         -74.306999     -203.323669      -69.645920
 H         -74.557266     -199.191208      -70.554749
 H         -75.610634     -200.471939      -70.888206
 H         -72.103615     -202.340454      -70.171486
 H         -72.421570     -201.005951      -69.115349
 H         -72.942650     -200.622452      -71.564888
 H         -74.153244     -201.967667      -71.497902
