20
 generated by VMD
 C         -70.607635     -182.032684      -63.841164
 N         -69.571068     -182.600540      -63.949829
 H         -68.937317     -180.716339      -61.315315
 H         -71.568604     -181.527512      -63.830982
 C         -67.856911     -180.625580      -61.243576
 C         -67.156448     -181.930283      -61.035057
 C         -67.299019     -179.295563      -60.683277
 C         -65.616364     -181.892822      -60.895554
 C         -65.767097     -179.241867      -60.820923
 C         -65.155197     -180.557037      -60.184200
 H         -67.401299     -182.736725      -61.718620
 H         -67.513069     -182.414627      -60.134438
 H         -67.871185     -178.443008      -60.982895
 H         -67.533363     -179.407120      -59.630428
 H         -65.117081     -181.715820      -61.849834
 H         -65.186455     -182.696945      -60.239544
 H         -65.372482     -178.359940      -60.281528
 H         -65.523483     -179.225021      -61.902477
 H         -64.050743     -180.520599      -60.067112
 H         -65.635895     -180.657135      -59.140598
