20
 generated by VMD
 C         -21.552200      -65.662361      -17.158712
 N         -20.878050      -66.043877      -16.243202
 H         -24.212038      -63.872524      -17.952894
 H         -22.031578      -65.065788      -17.811317
 C         -24.496359      -64.791855      -18.318287
 C         -24.481632      -65.223167      -19.720953
 C         -25.209148      -65.567429      -17.262112
 C         -24.328749      -66.728432      -19.951313
 C         -25.092558      -67.052544      -17.472435
 C         -25.026110      -67.478325      -18.908686
 H         -23.701738      -64.545120      -20.250849
 H         -25.478975      -65.028870      -20.213720
 H         -24.946123      -65.234215      -16.324080
 H         -26.215601      -65.320381      -17.276953
 H         -23.261572      -66.846321      -19.908577
 H         -24.657848      -67.093170      -20.933876
 H         -25.844408      -67.613403      -16.892876
 H         -24.102383      -67.342674      -17.031830
 H         -24.596493      -68.493385      -18.874287
 H         -26.103668      -67.625656      -19.248800
