20
 generated by VMD
 C         -58.419846     -160.032944      -57.059795
 N         -58.605938     -159.876343      -58.139111
 H         -58.655563     -162.970932      -54.884327
 H         -58.260166     -160.134476      -56.002468
 C         -59.516014     -163.014084      -54.202930
 C         -59.320927     -163.094055      -52.648884
 C         -60.965645     -162.942703      -54.716267
 C         -60.239548     -162.012680      -52.027485
 C         -62.055927     -162.183502      -53.870678
 C         -61.838478     -162.257263      -52.360245
 H         -58.244637     -162.894653      -52.413319
 H         -59.810394     -164.115875      -52.276577
 H         -61.001301     -162.484619      -55.674450
 H         -61.264145     -164.010468      -54.858879
 H         -59.909458     -160.926041      -52.340759
 H         -60.230244     -161.962814      -50.975681
 H         -63.006573     -162.655975      -54.018337
 H         -62.154060     -161.324234      -54.398815
 H         -62.524281     -161.616074      -51.829845
 H         -62.003899     -163.374008      -52.043434
