20
 generated by VMD
 C         -57.268837     -163.999725      -56.710052
 N         -57.266937     -163.009674      -57.238682
 H         -59.891674     -165.273422      -54.649933
 H         -57.262817     -164.954819      -56.223553
 C         -60.856312     -164.883591      -54.653984
 C         -61.705162     -165.339890      -53.487534
 C         -61.404789     -164.388428      -55.938690
 C         -63.057034     -164.641373      -53.427059
 C         -62.802181     -163.795853      -55.815895
 C         -63.781818     -164.676788      -54.910717
 H         -61.087994     -165.252472      -52.539791
 H         -62.058918     -166.389450      -53.750946
 H         -60.622276     -163.673462      -56.301407
 H         -61.365543     -165.256790      -56.562561
 H         -62.948864     -163.578888      -53.118946
 H         -63.817501     -165.034943      -52.662037
 H         -63.307415     -163.819412      -56.789055
 H         -62.812943     -162.719177      -55.244576
 H         -64.821739     -164.266098      -54.835739
 H         -63.923119     -165.732986      -55.216724
