20
 generated by VMD
 C         -30.807428      -78.007874      -25.718039
 N         -31.806707      -77.688477      -26.125950
 H         -29.323086      -77.990273      -22.844893
 H         -29.739054      -78.260437      -25.477650
 C         -28.899229      -78.955620      -22.980616
 C         -27.493635      -79.284370      -23.351570
 C         -29.716858      -80.215118      -22.657795
 C         -26.831673      -79.891953      -22.117538
 C         -29.044998      -80.862137      -21.430597
 C         -27.498608      -81.022606      -21.522154
 H         -27.029034      -78.345322      -23.797428
 H         -27.377302      -80.027527      -24.154615
 H         -30.795809      -79.875015      -22.458042
 H         -29.803762      -80.915642      -23.417288
 H         -26.621754      -79.087898      -21.360714
 H         -25.829252      -80.263214      -22.474148
 H         -29.472687      -81.815628      -21.526354
 H         -29.293816      -80.227303      -20.587938
 H         -27.099611      -81.186897      -20.518837
 H         -27.287125      -81.961365      -22.168825
