20
 generated by VMD
 C         -46.708725     -124.651230      -37.324390
 N         -46.929218     -124.770370      -36.187206
 H         -44.505154     -122.003296      -37.775455
 H         -46.662228     -124.801903      -38.417027
 C         -44.636898     -121.882736      -38.858341
 C         -43.412354     -122.189819      -39.610844
 C         -45.884869     -121.423401      -39.455082
 C         -43.614845     -122.323608      -41.180782
 C         -46.072948     -121.497841      -41.022324
 C         -44.726650     -121.421707      -41.733521
 H         -42.956795     -123.113373      -39.262280
 H         -42.674809     -121.413918      -39.436447
 H         -46.679630     -121.890388      -38.926113
 H         -45.876854     -120.336548      -39.158897
 H         -43.866253     -123.379349      -41.449684
 H         -42.599861     -121.888237      -41.668350
 H         -46.969021     -120.950150      -41.400352
 H         -46.393932     -122.541412      -41.054344
 H         -44.875523     -121.529793      -42.841145
 H         -44.431351     -120.397652      -41.633171
