20
 generated by VMD
 C         -58.261623     -166.997437      -55.924011
 N         -57.728386     -167.613724      -55.044334
 H         -60.877438     -166.209824      -54.980400
 H         -58.860561     -166.356781      -56.593689
 C         -61.638168     -165.877197      -55.705864
 C         -61.933075     -166.860367      -56.797897
 C         -62.555653     -164.674942      -55.596695
 C         -63.401314     -167.343964      -56.684715
 C         -64.097618     -165.083679      -55.542793
 C         -64.435417     -166.184845      -56.599884
 H         -61.148533     -167.572174      -56.847664
 H         -61.823128     -166.230774      -57.802914
 H         -62.285427     -163.981216      -54.749027
 H         -62.519859     -164.101425      -56.572918
 H         -63.603764     -167.989410      -55.798012
 H         -63.737682     -167.788788      -57.658817
 H         -64.618279     -164.206772      -55.716633
 H         -64.235985     -165.395325      -54.587391
 H         -65.444923     -166.449219      -56.355175
 H         -64.606804     -165.765976      -57.578686
