20
 generated by VMD
 C         -49.873932     -128.836395      -42.917011
 N         -50.668224     -128.683182      -43.793804
 H         -48.707390     -128.283859      -40.026943
 H         -49.030861     -128.994965      -42.221931
 C         -47.729385     -128.142181      -40.433861
 C         -46.681190     -129.163239      -39.990952
 C         -47.436859     -126.852219      -41.090504
 C         -45.598927     -129.281784      -40.968655
 C         -46.380726     -127.067093      -42.160912
 C         -45.168369     -127.859383      -41.648914
 H         -47.004524     -130.129883      -39.788788
 H         -46.302681     -128.725601      -39.017685
 H         -48.348888     -126.507278      -41.588413
 H         -47.044266     -126.132347      -40.192623
 H         -45.729103     -130.069611      -41.805088
 H         -44.683308     -129.866898      -40.598797
 H         -45.887188     -126.162537      -42.667793
 H         -46.821480     -127.615395      -43.073917
 H         -44.531120     -128.104309      -42.519604
 H         -44.617722     -127.351013      -40.902485
