20
 generated by VMD
 C         -78.547234     -204.375778      -70.510605
 N         -79.562508     -204.038284      -70.152435
 H         -76.290962     -202.944229      -67.999100
 H         -77.640770     -204.620575      -70.933838
 C         -75.533333     -202.774826      -68.775383
 C         -75.748756     -201.552277      -69.572784
 C         -74.268021     -203.589127      -68.756302
 C         -74.849297     -201.545197      -70.708374
 C         -73.087379     -202.836014      -69.365601
 C         -73.386597     -201.664841      -70.343742
 H         -75.613998     -200.678146      -68.942680
 H         -76.809875     -201.534836      -69.843925
 H         -74.114876     -203.680710      -67.695374
 H         -74.387077     -204.603668      -69.074699
 H         -74.956413     -200.632828      -71.264709
 H         -75.153214     -202.373260      -71.398758
 H         -72.297180     -203.557449      -69.722107
 H         -72.522964     -202.319931      -68.611603
 H         -72.928604     -200.773590      -69.899414
 H         -72.840721     -202.019577      -71.271538
