20
 generated by VMD
 C          -1.522513      -10.630170        0.836200
 N          -0.805970      -10.784734        1.653363
 H          -3.855348      -12.985941        0.157352
 H          -5.028191      -12.459760        1.309703
 C          -4.494669      -13.333051        0.989511
 C          -3.580665      -13.953732        2.092639
 C          -5.459986      -14.379135        0.415798
 C          -4.500430      -14.526448        3.249253
 C          -6.275924      -15.063368        1.496725
 C          -5.468646      -15.529959        2.684414
 H          -2.929622      -13.145268        2.450635
 H          -2.910742      -14.746732        1.642233
 H          -6.186004      -13.833886       -0.271529
 H          -4.940684      -15.150946       -0.271207
 H          -4.946741      -13.630960        3.731764
 H          -3.812582      -14.885913        3.992122
 H          -6.793126      -15.886972        1.049279
 H          -7.109628      -14.400105        1.750053
 H          -6.154957      -16.016434        3.414105
 H          -4.904438      -16.368467        2.248085
