20
 generated by VMD
 C         -74.877609     -201.804031      -66.270851
 N         -74.137505     -201.102432      -65.759811
 H         -76.135338     -199.274872      -68.499367
 H         -75.382393     -202.515030      -66.930969
 C         -75.321281     -198.648285      -68.758575
 C         -75.053017     -197.310974      -68.242981
 C         -74.458618     -199.186157      -69.996384
 C         -73.561150     -197.026062      -68.072914
 C         -73.110390     -198.361649      -70.263535
 C         -72.537056     -197.947174      -68.916374
 H         -75.425476     -197.245895      -67.210670
 H         -75.532562     -196.597580      -68.869743
 H         -74.343063     -200.260498      -69.944656
 H         -75.048241     -199.078064      -70.868874
 H         -73.104683     -196.972336      -67.081581
 H         -73.393661     -195.968323      -68.420883
 H         -73.355911     -197.492081      -70.791710
 H         -72.383713     -199.029663      -70.757454
 H         -72.246620     -198.816238      -68.492340
 H         -71.635750     -197.193848      -69.049904
