20
 generated by VMD
 C         -65.679901     -177.670349      -56.790390
 N         -66.146126     -176.600845      -56.714546
 H         -64.848061     -175.448334      -59.506783
 H         -65.270042     -178.678757      -56.816772
 C         -64.633461     -174.452347      -59.501270
 C         -65.435852     -173.535080      -58.593517
 C         -63.468861     -174.156265      -60.371162
 C         -65.191147     -172.038315      -58.921204
 C         -63.145973     -172.683640      -60.239071
 C         -64.315498     -171.812012      -60.246284
 H         -64.941917     -173.660324      -57.595222
 H         -66.514626     -173.822678      -58.569149
 H         -62.624329     -174.650513      -59.896111
 H         -63.807747     -174.428772      -61.313850
 H         -64.541214     -171.542313      -58.190094
 H         -66.016853     -171.377869      -59.086761
 H         -62.576454     -172.473297      -61.211536
 H         -62.451855     -172.546082      -59.453190
 H         -64.092438     -170.753296      -60.415653
 H         -65.062508     -172.095764      -61.014366
