20
 generated by VMD
 C         -10.929924      -35.218098       -9.305381
 N         -10.383534      -35.108521       -8.307545
 H         -12.577103      -36.863853       -6.895714
 H         -13.910754      -37.351925       -5.842834
 C         -13.396153      -37.633694       -6.828270
 C         -12.733360      -39.071266       -6.671853
 C         -14.451262      -37.662132       -7.963844
 C         -13.774090      -40.145645       -6.426917
 C         -15.522294      -38.761215       -7.703968
 C         -14.887640      -40.191059       -7.438165
 H         -11.975754      -39.066738       -5.846914
 H         -12.086402      -39.277519       -7.591878
 H         -14.970609      -36.692440       -8.020819
 H         -13.960102      -37.710064       -8.999249
 H         -14.185297      -40.031635       -5.421900
 H         -13.335904      -41.218975       -6.351848
 H         -16.186199      -38.786755       -8.507046
 H         -16.124077      -38.423084       -6.810764
 H         -15.638105      -40.897079       -7.140915
 H         -14.409932      -40.582184       -8.362928
