20
 generated by VMD
 C          -8.216519      -23.556749        2.144703
 N          -7.773179      -23.695669        3.148100
 H          -8.898782      -23.522848       -1.519065
 H          -9.367462      -22.538620       -2.970388
 C          -8.536848      -22.934200       -2.392025
 C          -7.757180      -23.822304       -3.338167
 C          -7.705522      -21.769650       -1.814433
 C          -7.056689      -23.035925       -4.420907
 C          -6.960228      -20.947851       -2.919935
 C          -6.127048      -21.883667       -3.867373
 H          -8.434457      -24.578466       -3.649866
 H          -6.985126      -24.392130       -2.813664
 H          -8.318460      -21.041197       -1.278495
 H          -6.964423      -22.242809       -1.162262
 H          -7.722588      -22.495613       -5.104249
 H          -6.486586      -23.642136       -5.167745
 H          -6.359792      -20.132832       -2.511551
 H          -7.747145      -20.486347       -3.524330
 H          -5.714022      -21.354712       -4.701920
 H          -5.386922      -22.429058       -3.285359
