20
 generated by VMD
 C         -67.652351     -191.705826      -66.526176
 N         -66.719162     -191.704025      -67.218506
 H         -70.401131     -189.627167      -66.229370
 H         -68.445549     -191.871841      -65.735680
 C         -71.147102     -189.874069      -65.517159
 C         -71.974373     -191.064331      -65.779144
 C         -71.086891     -189.307968      -64.166901
 C         -73.295158     -191.141769      -64.970718
 C         -72.550430     -189.189377      -63.712826
 C         -73.072533     -190.669373      -63.578007
 H         -71.368828     -191.977325      -65.647827
 H         -72.188278     -191.083847      -66.916473
 H         -70.509155     -189.935822      -63.538910
 H         -70.627304     -188.289856      -64.258362
 H         -73.682716     -192.107025      -65.092705
 H         -73.965286     -190.402390      -65.409218
 H         -73.144890     -188.590179      -64.400414
 H         -72.493805     -188.744812      -62.759628
 H         -72.451950     -191.410889      -63.152157
 H         -74.045914     -190.425995      -62.950581
