20
 generated by VMD
 C         -31.245287      -75.720146      -21.642500
 N         -32.203484      -75.233246      -21.204359
 H         -27.828426      -75.054756      -20.175026
 H         -30.183266      -76.177208      -21.473797
 C         -26.816286      -75.081299      -20.541771
 C         -26.377989      -76.276863      -21.356831
 C         -25.821159      -73.988953      -20.341434
 C         -26.015371      -75.828133      -22.671524
 C         -25.327044      -73.552078      -21.778069
 C         -24.900152      -74.760017      -22.647141
 H         -27.292082      -76.959686      -21.378420
 H         -25.593460      -76.951790      -20.961454
 H         -26.441423      -73.267380      -19.872763
 H         -25.017744      -74.417587      -19.813433
 H         -26.861599      -75.514412      -23.243397
 H         -25.602320      -76.665016      -23.208368
 H         -24.574810      -72.733170      -21.705791
 H         -26.120039      -72.969406      -22.301521
 H         -24.664946      -74.327492      -23.610559
 H         -24.018576      -75.193787      -22.176600
