20
 generated by VMD
 C         -41.493259     -102.353821      -34.340904
 N         -41.118912     -101.829063      -35.276360
 H         -39.490910     -104.120674      -32.380550
 H         -42.037876     -102.774269      -33.501408
 C         -38.500126     -104.261299      -32.088451
 C         -37.419510     -103.838196      -33.038101
 C         -38.247219     -105.160896      -30.867016
 C         -36.151463     -103.356697      -32.162796
 C         -36.862221     -104.984436      -30.249651
 C         -35.781208     -104.496429      -31.276464
 H         -37.636066     -103.156998      -33.860687
 H         -37.059898     -104.745224      -33.552746
 H         -38.861931     -104.953506      -30.049288
 H         -38.491386     -106.230133      -31.123884
 H         -36.583317     -102.416412      -31.803553
 H         -35.270996     -103.120499      -32.798946
 H         -36.649261     -105.913490      -29.840357
 H         -36.950840     -104.308640      -29.371883
 H         -34.870392     -104.272911      -30.692545
 H         -35.533165     -105.406349      -31.936813
