20
 generated by VMD
 C         -71.263718     -198.991562      -64.523117
 N         -70.433426     -198.628143      -65.249962
 H         -72.245461     -196.589584      -66.515053
 H         -72.188759     -199.130264      -64.013206
 C         -72.999298     -195.979675      -67.029518
 C         -73.209511     -194.494888      -66.672493
 C         -73.502991     -196.480331      -68.418633
 C         -73.394989     -193.617447      -67.843994
 C         -74.690315     -195.629135      -68.743904
 C         -74.356873     -194.121414      -68.903152
 H         -72.350929     -194.169678      -66.035629
 H         -73.994316     -194.270935      -66.024673
 H         -72.738304     -196.337570      -69.171936
 H         -73.995171     -197.471558      -68.338173
 H         -72.400284     -193.594971      -68.367439
 H         -73.518013     -192.503799      -67.681541
 H         -75.563683     -195.680252      -68.018967
 H         -75.032341     -196.128647      -69.646652
 H         -74.089325     -193.956635      -69.893036
 H         -75.430046     -193.550232      -68.875175
