20
 generated by VMD
 C         -13.420560      -28.740805       -6.557198
 N         -13.174261      -28.812674       -7.645306
 H         -11.986592      -30.752363       -4.900968
 H         -10.686463      -29.657684       -4.533010
 C         -10.919820      -30.766378       -4.587933
 C         -10.123610      -31.542374       -5.649447
 C         -10.865592      -31.493532       -3.279186
 C          -8.693195      -31.806026       -5.127672
 C          -9.524440      -31.601545       -2.702980
 C          -8.624091      -32.353851       -3.629624
 H         -10.250564      -30.864218       -6.587930
 H         -10.633645      -32.473305       -5.864849
 H         -11.540920      -30.967562       -2.571491
 H         -11.319720      -32.519836       -3.390924
 H          -8.015179      -30.909334       -5.181168
 H          -8.253996      -32.561462       -5.852641
 H          -9.505696      -32.130054       -1.788614
 H          -9.090641      -30.576857       -2.530710
 H          -7.613065      -32.337151       -3.233639
 H          -8.828208      -33.451900       -3.567570
