20
 generated by VMD
 C         -70.267273     -183.376984      -65.915764
 N         -69.287331     -182.756042      -65.917358
 H         -68.486351     -185.093811      -62.886051
 H         -71.181107     -183.916916      -65.849213
 C         -68.156105     -184.262985      -62.235432
 C         -68.215378     -184.681976      -60.780773
 C         -67.867325     -182.919464      -62.739346
 C         -67.340210     -183.747559      -60.009510
 C         -67.108833     -182.108994      -61.679451
 C         -67.504776     -182.317993      -60.203892
 H         -67.795982     -185.739090      -60.781834
 H         -69.207848     -184.807968      -60.251869
 H         -67.299667     -183.092560      -63.652035
 H         -68.709381     -182.350357      -63.038052
 H         -66.341873     -184.098190      -60.220730
 H         -67.510643     -184.004318      -58.978088
 H         -67.322708     -181.074722      -61.952927
 H         -66.042221     -182.052246      -61.705906
 H         -66.867516     -181.731598      -59.442043
 H         -68.532860     -181.916199      -60.064686
