20
 generated by VMD
 C         -50.717396     -129.127914      -44.619087
 N         -50.953270     -130.244949      -44.287365
 H         -49.249416     -128.369202      -41.243675
 H         -50.649345     -128.041306      -44.798725
 C         -48.205811     -128.494766      -41.312290
 C         -47.860500     -129.954376      -41.031185
 C         -47.084003     -127.585464      -40.788910
 C         -46.392555     -130.349380      -41.389091
 C         -45.712761     -127.967293      -41.364601
 C         -45.287716     -129.363144      -41.042534
 H         -48.497200     -130.562103      -41.578804
 H         -47.922298     -130.199768      -39.917805
 H         -47.321980     -126.441597      -40.950687
 H         -46.942875     -127.635284      -39.756657
 H         -46.303631     -130.438644      -42.464989
 H         -46.144634     -131.327347      -40.919018
 H         -45.023018     -127.203453      -40.853981
 H         -45.723953     -127.746155      -42.556702
 H         -44.397358     -129.652252      -41.635357
 H         -45.093952     -129.340317      -40.006905
