20
 generated by VMD
 C         -47.391457     -138.436569      -45.739872
 N         -47.094357     -138.180389      -46.781303
 H         -50.394772     -138.362305      -44.640850
 H         -47.666309     -138.395828      -44.740505
 C         -51.420406     -138.563950      -44.941658
 C         -51.674145     -138.856171      -46.378258
 C         -52.668812     -138.097916      -44.239498
 C         -52.745239     -139.950623      -46.533974
 C         -53.868744     -139.022659      -44.499115
 C         -54.087952     -139.511078      -45.855282
 H         -50.740108     -139.224655      -46.875690
 H         -51.801773     -137.879120      -46.806747
 H         -52.493999     -137.724930      -43.224529
 H         -52.981720     -137.158035      -44.682705
 H         -52.290886     -140.915634      -46.171906
 H         -52.978218     -140.186554      -47.579826
 H         -54.823158     -138.689728      -44.092686
 H         -53.677780     -139.913971      -43.754688
 H         -54.828503     -140.277145      -45.875309
 H         -54.558388     -138.768494      -46.535969
