20
 generated by VMD
 C         -50.859024     -129.560669      -45.309826
 N         -50.933395     -129.734863      -44.123470
 H         -49.088276     -128.773407      -42.117630
 H         -50.674057     -129.592575      -46.405247
 C         -48.273972     -129.016876      -41.554859
 C         -47.968342     -130.445206      -41.204407
 C         -47.312279     -127.941971      -41.071735
 C         -46.446247     -130.795746      -41.299805
 C         -45.828262     -128.331863      -41.355656
 C         -45.490459     -129.687469      -40.790916
 H         -48.469563     -131.126526      -41.904301
 H         -48.402760     -130.659470      -40.248936
 H         -47.634304     -127.082199      -41.610962
 H         -47.450745     -127.804985      -39.941429
 H         -46.148212     -130.789856      -42.394947
 H         -46.464970     -131.743423      -40.697094
 H         -45.329906     -127.510605      -40.893978
 H         -45.705265     -128.167526      -42.467716
 H         -44.433361     -129.872681      -40.966759
 H         -45.562191     -129.660126      -39.668388
