20
 generated by VMD
 C         -50.006741     -143.801315      -44.368099
 N         -49.268082     -143.647278      -45.313042
 H         -52.176682     -141.629791      -45.639088
 H         -50.643303     -144.071289      -43.545578
 C         -52.830875     -141.750793      -46.465588
 C         -52.240906     -141.771027      -47.830723
 C         -54.194252     -141.320892      -46.233574
 C         -53.143303     -142.354553      -48.910667
 C         -55.224556     -141.863281      -47.288052
 C         -54.517960     -141.751450      -48.775600
 H         -51.193005     -142.202271      -47.884789
 H         -52.138245     -140.619812      -47.995781
 H         -54.574574     -141.648651      -45.198223
 H         -54.273598     -140.240891      -46.269627
 H         -53.015831     -143.402802      -48.733784
 H         -52.829243     -142.129791      -49.927986
 H         -56.178055     -141.307022      -47.276989
 H         -55.426304     -142.954803      -47.198936
 H         -55.219376     -142.194473      -49.465092
 H         -54.493073     -140.680542      -48.943130
