20
 generated by VMD
 C          -1.938426      -14.038196        2.186535
 N          -1.692899      -15.051751        1.775748
 H          -3.794014      -16.667782        0.715178
 H          -4.348914      -17.156801       -0.875350
 C          -4.702436      -16.901640        0.156753
 C          -5.622266      -15.662545        0.241156
 C          -5.422530      -18.040686        0.869490
 C          -6.984957      -15.953425       -0.463623
 C          -6.720776      -18.429075        0.193855
 C          -7.628673      -17.189272        0.040276
 H          -5.141702      -14.781938       -0.215763
 H          -5.892603      -15.350416        1.265843
 H          -4.809396      -19.033028        0.964947
 H          -5.517735      -17.749756        1.990180
 H          -6.685237      -16.062098       -1.492738
 H          -7.653453      -15.153025       -0.321171
 H          -7.327165      -19.196905        0.709338
 H          -6.484493      -18.772644       -0.797506
 H          -8.556057      -17.521868       -0.470573
 H          -7.859511      -16.975494        1.118631
