20
 generated by VMD
 C         -78.298515     -209.800888      -77.128349
 N         -78.872025     -208.803055      -77.447525
 H         -78.467941     -210.837128      -73.780334
 H         -77.866074     -210.711823      -76.753433
 C         -78.748772     -211.453354      -72.947769
 C         -77.664070     -211.686829      -71.975266
 C         -79.875069     -212.421173      -72.895943
 C         -78.179230     -212.246872      -70.624451
 C         -80.357758     -212.679428      -71.454094
 C         -79.250328     -213.247391      -70.587898
 H         -77.106407     -210.739594      -71.880280
 H         -76.922310     -212.389587      -72.426224
 H         -80.723564     -212.124710      -73.554176
 H         -79.444901     -213.343414      -73.151520
 H         -78.433060     -211.386673      -70.038567
 H         -77.348122     -212.729065      -70.073235
 H         -81.235588     -213.256363      -71.508331
 H         -80.847954     -211.672119      -71.018852
 H         -79.678238     -213.423920      -69.626770
 H         -78.914795     -214.289963      -70.830322
