20
 generated by VMD
 C         -31.018349      -78.422325      -25.883860
 N         -31.341413      -77.536407      -25.265598
 H         -29.390539      -77.439484      -23.098759
 H         -30.715517      -79.048271      -26.668762
 C         -28.851679      -78.247513      -22.692560
 C         -27.391447      -78.308479      -22.933474
 C         -29.505917      -79.370049      -22.022924
 C         -26.562456      -79.503342      -22.377121
 C         -28.669966      -80.338585      -21.320614
 C         -27.387291      -80.723213      -22.038450
 H         -26.962652      -77.364449      -22.467545
 H         -27.379211      -78.478302      -24.010941
 H         -30.210741      -78.790291      -21.287594
 H         -30.063164      -79.888512      -22.798552
 H         -26.026108      -79.084236      -21.492485
 H         -25.675127      -79.819145      -22.986721
 H         -29.343042      -81.176361      -21.097874
 H         -28.597046      -79.846039      -20.234449
 H         -26.857021      -81.428833      -21.448631
 H         -27.515003      -81.220352      -23.044424
