20
 generated by VMD
 C         -22.448681      -68.370323      -16.636833
 N         -22.245827      -68.681686      -15.545809
 H         -24.273491      -66.030754      -18.256889
 H         -22.386797      -67.973846      -17.640055
 C         -24.657705      -66.530647      -19.157158
 C         -23.973717      -67.296211      -20.208570
 C         -26.227921      -66.645355      -18.978273
 C         -24.372225      -68.667313      -20.348745
 C         -26.706938      -68.155731      -19.176458
 C         -25.956705      -68.746140      -20.389589
 H         -22.879892      -67.317085      -19.967173
 H         -23.915817      -66.787346      -21.212643
 H         -26.410051      -66.269142      -17.925413
 H         -26.768267      -65.910080      -19.544563
 H         -24.067633      -69.161758      -19.363731
 H         -23.974155      -69.216743      -21.196081
 H         -27.840878      -68.134705      -19.334860
 H         -26.441589      -68.607040      -18.209894
 H         -26.285606      -69.779510      -20.451298
 H         -26.241238      -68.417717      -21.392244
