20
 generated by VMD
 C         -21.190220      -56.366173      -17.240852
 N         -20.926092      -55.351269      -17.805740
 H         -23.125374      -58.513092      -15.777669
 H         -21.384296      -57.235714      -16.502335
 C         -22.363604      -59.192207      -15.383185
 C         -21.909069      -58.949203      -14.026368
 C         -21.703440      -60.256031      -16.279509
 C         -20.993441      -59.997471      -13.401548
 C         -20.402746      -60.819313      -15.695181
 C         -20.601973      -61.250683      -14.263814
 H         -22.745609      -58.964375      -13.336600
 H         -21.434868      -57.957397      -14.101813
 H         -22.398445      -61.068451      -16.617641
 H         -21.290077      -59.704033      -17.153606
 H         -21.563271      -60.391617      -12.555882
 H         -20.138557      -59.431931      -12.994949
 H         -19.471430      -60.153225      -15.857428
 H         -20.307983      -61.825268      -16.169758
 H         -21.241009      -62.148884      -14.155463
 H         -19.624815      -61.684311      -13.918886
