20
 generated by VMD
 C          -9.930026      -24.532782        0.022486
 N         -10.666695      -25.048143       -0.632448
 H          -6.369698      -24.788166       -0.867598
 H          -8.081988      -24.768332       -1.100640
 C          -7.150884      -24.633774       -1.647483
 C          -7.007344      -25.668581       -2.816774
 C          -6.906744      -23.250744       -2.108913
 C          -8.036147      -25.221870       -3.967055
 C          -7.920167      -22.809250       -3.234734
 C          -7.734040      -23.765066       -4.373809
 H          -7.370465      -26.719479       -2.434973
 H          -5.949115      -25.646666       -3.167647
 H          -7.171214      -22.602262       -1.256685
 H          -5.860627      -23.127283       -2.445895
 H          -9.068937      -25.224976       -3.615700
 H          -7.816361      -25.825762       -4.850153
 H          -7.647507      -21.786972       -3.538254
 H          -8.923514      -22.724512       -2.770852
 H          -8.463791      -23.508465       -5.137903
 H          -6.742298      -23.678772       -4.812284
