20
 generated by VMD
 C         -12.515339      -30.250507       -8.024901
 N         -13.381324      -30.215349       -7.323154
 H         -11.147161      -30.371790       -5.212495
 H         -10.502135      -30.809681       -3.542986
 C         -10.842266      -31.143017       -4.573273
 C          -9.675067      -31.695562       -5.363549
 C         -11.914171      -32.239120       -4.400767
 C          -8.950958      -32.857353       -4.727499
 C         -11.192910      -33.466011       -3.717893
 C          -9.977234      -33.941772       -4.455659
 H          -8.950632      -30.865288       -5.551044
 H         -10.027907      -32.007057       -6.305937
 H         -12.722909      -31.820387       -3.769937
 H         -12.326765      -32.610474       -5.365652
 H          -8.457380      -32.503719       -3.763193
 H          -8.145235      -33.269737       -5.427699
 H         -11.869138      -34.293419       -3.578182
 H         -10.889245      -33.069450       -2.731109
 H          -9.509235      -34.743023       -3.822876
 H         -10.333158      -34.340435       -5.477967
