20
 generated by VMD
 C          -1.239026      -12.419570        1.363947
 N          -0.782012      -12.674911        0.348868
 H          -4.113825      -12.976501        1.075781
 H          -5.877637      -13.315889        0.686918
 C          -4.946257      -13.725646        1.157829
 C          -5.186058      -13.985911        2.620373
 C          -4.537258      -14.913453        0.330979
 C          -6.307725      -15.014486        2.705883
 C          -5.555536      -16.072748        0.486838
 C          -6.016541      -16.320683        1.922584
 H          -5.515867      -13.111962        3.126235
 H          -4.298429      -14.451962        3.111242
 H          -4.589073      -14.591957       -0.781947
 H          -3.465690      -15.261600        0.518131
 H          -7.212475      -14.614422        2.233102
 H          -6.473201      -15.306331        3.724023
 H          -5.215815      -16.982841        0.035918
 H          -6.450313      -15.792087       -0.066377
 H          -6.964584      -16.931688        2.023629
 H          -5.248657      -16.843929        2.550734
