20
 generated by VMD
 C         -12.685165      -30.128725       -8.308240
 N         -13.488774      -30.726496       -7.808578
 H         -11.231236      -30.628641       -5.110252
 H         -10.731478      -31.307495       -3.464345
 C         -10.826824      -31.525827       -4.578711
 C          -9.453593      -32.047379       -5.156386
 C         -11.889240      -32.558414       -4.823198
 C          -9.198965      -33.389545       -4.391355
 C         -11.656157      -33.838383       -4.046413
 C         -10.319260      -34.447330       -4.599037
 H          -8.767118      -31.220844       -4.935650
 H          -9.558972      -32.180798       -6.234159
 H         -12.812322      -32.111858       -4.477937
 H         -11.950407      -32.784138       -5.894618
 H          -9.093451      -33.209034       -3.349503
 H          -8.312015      -33.843315       -4.767662
 H         -12.478739      -34.528793       -4.323353
 H         -11.616540      -33.759750       -2.972976
 H         -10.015204      -35.357330       -4.042025
 H         -10.430732      -34.610123       -5.658529
