20
 generated by VMD
 C         -23.413326      -68.667061      -16.619017
 N         -23.200409      -69.437073      -15.781713
 H         -23.901779      -66.339653      -18.781689
 H         -23.560877      -67.866989      -17.295393
 C         -24.485485      -67.072975      -19.281693
 C         -23.840328      -67.696320      -20.522537
 C         -25.980564      -67.092361      -19.146458
 C         -24.486948      -69.063881      -20.741755
 C         -26.444210      -68.489342      -19.140324
 C         -25.997618      -69.088829      -20.449619
 H         -22.744310      -67.792336      -20.456701
 H         -24.009090      -67.097931      -21.380754
 H         -26.415651      -66.515366      -18.347099
 H         -26.353544      -66.333191      -19.943291
 H         -23.974096      -69.737366      -20.116474
 H         -24.425335      -69.460152      -21.737749
 H         -27.533998      -68.439415      -19.170130
 H         -26.371853      -69.108963      -18.244537
 H         -26.480988      -70.083870      -20.362085
 H         -26.595963      -68.480820      -21.156492
