20
 generated by VMD
 C         -31.545225      -77.685730      -26.408928
 N         -31.737190      -78.020775      -27.538406
 H         -29.321465      -78.774933      -23.676941
 H         -31.101553      -77.626244      -25.415190
 C         -28.978910      -79.652962      -22.957651
 C         -27.546982      -79.993462      -23.071667
 C         -29.813744      -80.905388      -22.808132
 C         -27.016874      -80.900085      -21.904984
 C         -29.444397      -81.850319      -21.644323
 C         -27.935616      -82.060387      -21.559900
 H         -26.977121      -79.073463      -23.291050
 H         -27.353289      -80.594887      -23.932327
 H         -30.905289      -80.459297      -22.739361
 H         -29.870377      -81.540329      -23.647364
 H         -27.006847      -80.309853      -20.983206
 H         -26.021877      -81.205498      -22.035557
 H         -30.048565      -82.711235      -21.846260
 H         -29.818367      -81.354576      -20.692352
 H         -27.638584      -82.282867      -20.521460
 H         -27.647886      -82.940941      -22.252773
