20
 generated by VMD
 C         -57.652542     -168.165115      -55.154274
 N         -56.608166     -168.481155      -54.868095
 H         -61.442345     -167.024857      -55.249622
 H         -58.663227     -167.915085      -55.460438
 C         -62.360813     -166.777222      -55.856533
 C         -62.628086     -167.362183      -57.221104
 C         -63.094303     -165.550201      -55.584064
 C         -64.106636     -167.407135      -57.555065
 C         -64.549103     -165.539825      -56.013023
 C         -64.806023     -166.084152      -57.396408
 H         -62.255192     -168.410385      -57.385365
 H         -62.102108     -166.614868      -58.023155
 H         -63.108959     -165.278397      -54.532330
 H         -62.479397     -164.732239      -55.999256
 H         -64.522881     -168.227905      -56.922089
 H         -64.250473     -167.706680      -58.594383
 H         -64.895424     -164.539764      -55.955132
 H         -65.099869     -166.246140      -55.343086
 H         -65.907394     -166.130737      -57.361282
 H         -64.614471     -165.323441      -58.127892
