20
 generated by VMD
 C          -2.002473      -17.737232        2.128183
 N          -1.640798      -17.068686        2.947212
 H          -5.278097      -17.658020        0.977270
 H          -5.136398      -18.758659       -0.358336
 C          -5.843033      -18.059328        0.137627
 C          -6.122867      -16.968546       -0.994780
 C          -7.020195      -18.888409        0.533200
 C          -6.850265      -17.700129       -2.113106
 C          -7.791638      -19.467028       -0.635945
 C          -8.157760      -18.372961       -1.667456
 H          -5.164700      -16.448601       -1.319882
 H          -6.729533      -16.249500       -0.484569
 H          -6.775697      -19.769466        1.142451
 H          -7.782785      -18.229559        1.008560
 H          -6.208845      -18.526613       -2.586877
 H          -7.122599      -17.049376       -2.929498
 H          -8.675540      -19.959978       -0.246162
 H          -7.234983      -20.197163       -1.155159
 H          -8.691463      -18.822353       -2.491578
 H          -8.833452      -17.585304       -1.291776
