20
 generated by VMD
 C         -20.208261      -56.165218      -16.695784
 N         -21.338888      -56.219284      -16.962889
 H         -22.534952      -59.038563      -17.114090
 H         -19.071547      -56.295517      -16.962761
 C         -22.340298      -59.684689      -16.244183
 C         -22.424850      -59.218300      -14.793101
 C         -21.888460      -61.143719      -16.590065
 C         -21.187819      -59.693180      -14.003991
 C         -20.659283      -61.508850      -15.631796
 C         -21.040373      -61.233616      -14.100810
 H         -23.279430      -59.620556      -14.324065
 H         -22.448299      -58.123394      -14.901517
 H         -22.777214      -61.814472      -16.413490
 H         -21.593788      -61.183147      -17.679056
 H         -21.336031      -59.484173      -12.916752
 H         -20.278069      -59.041851      -14.176772
 H         -19.886831      -60.803852      -15.928205
 H         -20.398321      -62.567581      -15.698169
 H         -21.873987      -61.838970      -13.725067
 H         -20.142042      -61.535549      -13.519629
