20
 generated by VMD
 C         -69.783470     -183.253387      -65.603989
 N         -70.603447     -182.526321      -65.934723
 H         -68.064842     -184.219727      -62.930695
 H         -68.980278     -183.889297      -65.239639
 C         -67.676453     -183.514526      -62.219128
 C         -67.731529     -184.127625      -60.857605
 C         -67.482796     -182.066910      -62.399342
 C         -67.032211     -183.270279      -59.787624
 C         -66.703323     -181.438644      -61.280251
 C         -67.203545     -181.785141      -59.883846
 H         -67.289200     -185.181229      -60.813942
 H         -68.855522     -184.344376      -60.552307
 H         -66.963020     -181.794357      -63.399151
 H         -68.523895     -181.898193      -62.409115
 H         -66.005257     -183.605331      -59.790161
 H         -67.380592     -183.610519      -58.857056
 H         -66.871384     -180.387894      -61.243797
 H         -65.639206     -181.685593      -61.427147
 H         -66.574409     -181.237885      -59.078526
 H         -68.243095     -181.420624      -59.581364
