20
 generated by VMD
 C         -12.532180      -27.465689       -2.624955
 N         -13.646618      -27.495775       -2.643737
 H         -10.576020      -27.192822       -3.798625
 H          -9.529671      -26.497225       -5.077352
 C          -9.512127      -27.089397       -4.099244
 C          -8.909467      -28.455406       -4.425220
 C          -8.792950      -26.495407       -2.889804
 C          -7.468477      -28.367815       -4.753356
 C          -7.291426      -26.374323       -3.341542
 C          -6.737342      -27.818892       -3.490588
 H          -9.494548      -28.877756       -5.299703
 H          -9.207469      -29.195988       -3.679310
 H          -9.147165      -25.478868       -2.628514
 H          -8.844740      -27.056149       -1.969038
 H          -7.158132      -27.936272       -5.676297
 H          -7.122680      -29.406824       -4.903613
 H          -6.696308      -25.920765       -2.588194
 H          -7.155959      -25.708099       -4.215966
 H          -5.631218      -27.806236       -3.727915
 H          -6.905038      -28.406351       -2.584116
