20
 generated by VMD
 C         -58.740211     -151.981384      -48.991508
 N         -59.266899     -152.190659      -50.020046
 H         -56.481903     -150.428024      -48.465820
 H         -58.147701     -151.867722      -48.101040
 C         -55.539101     -150.105820      -49.005959
 C         -54.654564     -151.143265      -49.584515
 C         -55.302486     -148.621597      -49.175488
 C         -54.113388     -150.771927      -51.079739
 C         -54.778477     -148.232468      -50.473015
 C         -53.689724     -149.203827      -51.088387
 H         -55.273842     -152.010406      -49.683784
 H         -53.657074     -151.238800      -49.031239
 H         -56.163399     -148.125900      -48.737961
 H         -54.546154     -148.373215      -48.457394
 H         -54.921936     -150.747726      -51.800152
 H         -53.384968     -151.508713      -51.408482
 H         -54.462799     -147.184341      -50.499516
 H         -55.653057     -147.995148      -51.200073
 H         -53.310760     -148.830185      -52.126102
 H         -52.831989     -149.089081      -50.485245
