20
 generated by VMD
 C         -19.891262      -59.990768      -17.056900
 N         -18.881239      -60.580353      -17.023750
 H         -22.848856      -60.897484      -17.341396
 H         -20.877621      -59.560738      -16.891962
 C         -23.229465      -61.865673      -17.041811
 C         -23.716072      -62.656139      -18.190254
 C         -23.388977      -62.265625      -15.561542
 C         -23.855919      -64.111137      -17.730440
 C         -23.147438      -63.713142      -15.413051
 C         -24.063404      -64.539085      -16.297222
 H         -22.977915      -62.619568      -19.046549
 H         -24.741997      -62.342819      -18.569597
 H         -22.796177      -61.627228      -14.876743
 H         -24.468010      -62.061451      -15.264403
 H         -22.959835      -64.591942      -18.088577
 H         -24.605661      -64.524239      -18.469114
 H         -23.116983      -64.043381      -14.375728
 H         -22.116590      -63.954121      -15.683957
 H         -23.997984      -65.663330      -16.270638
 H         -25.130384      -64.349319      -15.931801
