20
 generated by VMD
 C         -57.567764     -150.778915      -48.598083
 N         -58.347565     -151.679688      -48.543896
 H         -54.430641     -149.030884      -47.385910
 H         -56.879856     -149.958725      -48.717030
 C         -54.488018     -148.719894      -48.419304
 C         -53.878468     -149.744354      -49.339176
 C         -54.593685     -147.358765      -48.817741
 C         -54.298923     -149.613708      -50.837208
 C         -55.147427     -147.253540      -50.247303
 C         -54.328754     -148.123917      -51.181919
 H         -54.066563     -150.757904      -49.025112
 H         -52.848869     -149.679749      -49.285828
 H         -55.391708     -146.957718      -48.071209
 H         -53.692223     -146.773438      -48.627560
 H         -55.286446     -150.049057      -51.087803
 H         -53.545509     -150.180756      -51.344952
 H         -54.839947     -146.088196      -50.359428
 H         -56.184780     -147.417038      -50.368793
 H         -54.647423     -147.914963      -52.222824
 H         -53.327160     -147.746384      -50.947620
