20
 generated by VMD
 C         -12.916395      -28.475319       -5.038564
 N         -12.916825      -27.545547       -5.652980
 H         -11.042152      -30.895374       -2.929511
 H         -11.223404      -29.551702       -3.961285
 C         -10.420493      -30.195457       -3.526378
 C          -9.662650      -30.871677       -4.674403
 C          -9.563910      -29.527994       -2.540487
 C          -8.743835      -29.839647       -5.302418
 C          -8.480442      -28.677519       -3.165150
 C          -7.770265      -29.326429       -4.288862
 H         -10.359586      -31.306665       -5.455453
 H          -9.117756      -31.768087       -4.337302
 H         -10.158747      -28.874086       -1.941490
 H          -9.113371      -30.226414       -1.819139
 H          -9.277287      -28.928173       -5.670841
 H          -8.266549      -30.199469       -6.221596
 H          -7.843719      -28.258991       -2.359724
 H          -9.044807      -27.781750       -3.466311
 H          -7.196507      -28.634092       -4.850661
 H          -7.115278      -30.160759       -3.941874
