20
 generated by VMD
 C         -38.333309     -109.702003      -36.417389
 N         -37.677570     -108.981720      -35.793083
 H         -41.533539     -110.790718      -37.125492
 H         -38.985188     -110.337738      -36.970249
 C         -41.904465     -111.385757      -36.292671
 C         -42.056751     -112.848038      -36.328442
 C         -42.017857     -110.525284      -35.094437
 C         -41.740135     -113.473335      -34.850830
 C         -42.038692     -111.224495      -33.719780
 C         -42.311829     -112.745239      -33.674480
 H         -41.443302     -113.286339      -37.116978
 H         -43.068684     -113.033562      -36.589458
 H         -41.270626     -109.695305      -35.095554
 H         -43.027882     -110.102119      -35.024311
 H         -40.674809     -113.538673      -34.775761
 H         -42.218849     -114.541679      -34.872490
 H         -42.693985     -110.763618      -32.915192
 H         -40.939968     -111.127090      -33.387306
 H         -41.908905     -113.175735      -32.702095
 H         -43.344631     -112.807800      -33.547749
