20
 generated by VMD
 C         -12.673696      -30.191143       -8.221576
 N         -13.269449      -30.743946       -7.456286
 H         -11.078362      -30.520811       -5.251291
 H         -10.802020      -31.114578       -3.572402
 C         -10.861286      -31.390436       -4.662590
 C          -9.504622      -31.948324       -5.193136
 C         -12.045134      -32.413265       -4.734568
 C          -9.083010      -33.274853       -4.531296
 C         -11.585396      -33.692001       -4.127414
 C         -10.243280      -34.303642       -4.508491
 H          -8.720853      -31.155119       -5.010079
 H          -9.657877      -32.046654       -6.261762
 H         -12.931618      -32.008057       -4.253892
 H         -12.223610      -32.611824       -5.791411
 H          -8.800742      -33.011425       -3.521634
 H          -8.210960      -33.694077       -5.055910
 H         -12.293183      -34.525234       -4.348433
 H         -11.606157      -33.527103       -3.037804
 H         -10.022610      -35.122986       -3.824856
 H         -10.322362      -34.601597       -5.531788
