20
 generated by VMD
 C         -30.851919      -78.181290      -26.068449
 N         -31.802046      -77.592537      -25.852419
 H         -29.336422      -77.875198      -22.707954
 H         -29.992680      -78.690407      -25.967150
 C         -28.845287      -78.811440      -22.867559
 C         -27.417820      -78.975258      -23.198904
 C         -29.674021      -79.975555      -22.418495
 C         -26.707571      -79.809685      -22.131365
 C         -28.952421      -80.737854      -21.339224
 C         -27.515247      -81.004051      -21.756403
 H         -27.013739      -78.010971      -23.311829
 H         -27.207699      -79.429207      -24.165096
 H         -30.656019      -79.614708      -22.072138
 H         -29.806406      -80.763412      -23.241573
 H         -26.599878      -79.153221      -21.261730
 H         -25.738455      -80.089439      -22.499037
 H         -29.566286      -81.664368      -20.959026
 H         -28.812346      -80.066032      -20.394121
 H         -26.985338      -81.577690      -20.976751
 H         -27.538063      -81.603790      -22.616411
