20
 generated by VMD
 C         -21.947367      -52.280563      -11.482492
 N         -21.796612      -52.841469      -10.444670
 H         -20.013155      -52.234684      -13.962018
 H         -21.815374      -51.610546      -12.595598
 C         -19.016335      -51.891224      -13.816317
 C         -17.931707      -51.715565      -14.848858
 C         -18.583248      -51.796024      -12.358070
 C         -16.494080      -52.067017      -14.471285
 C         -17.116873      -51.459957      -12.091759
 C         -16.123642      -52.151382      -13.019323
 H         -18.044651      -50.732948      -15.368187
 H         -18.281349      -52.433334      -15.627552
 H         -19.313379      -51.109627      -11.865469
 H         -18.718794      -52.774975      -11.897726
 H         -15.936525      -51.229141      -14.850859
 H         -16.203510      -52.929920      -15.081456
 H         -16.812927      -51.711388      -11.086502
 H         -17.062231      -50.364693      -12.195008
 H         -15.159881      -51.697792      -12.855807
 H         -16.113262      -53.209599      -12.817509
