20
 generated by VMD
 C         -69.285675     -194.675034      -65.156830
 N         -68.441948     -193.896011      -64.990959
 H         -71.000816     -194.166656      -67.696144
 H         -69.963745     -195.464569      -65.118927
 C         -71.935745     -193.766953      -67.256592
 C         -71.601036     -192.420883      -66.559128
 C         -73.346710     -194.236649      -67.196915
 C         -72.576714     -192.085510      -65.424019
 C         -74.363533     -193.097855      -67.021996
 C         -74.102280     -192.106873      -65.853058
 H         -71.882866     -191.645874      -67.319786
 H         -70.660027     -192.312332      -66.223610
 H         -73.622536     -194.686539      -68.195541
 H         -73.311531     -194.898361      -66.325142
 H         -72.388412     -191.183746      -64.896233
 H         -72.437065     -192.938034      -64.708542
 H         -75.421242     -193.500229      -66.959511
 H         -74.310188     -192.490875      -67.913864
 H         -74.405952     -190.984421      -66.064774
 H         -74.575928     -192.411789      -65.019279
