20
 generated by VMD
 C         -13.662138      -28.190701       -3.551259
 N         -14.027475      -27.308487       -4.109617
 H         -10.373927      -28.837894       -2.622084
 H         -10.132955      -27.472548       -3.727834
 C          -9.655901      -28.330206       -3.294225
 C          -9.109402      -29.366940       -4.273199
 C          -8.480064      -27.749653       -2.448121
 C          -7.970105      -28.705175       -5.170898
 C          -7.372110      -27.164248       -3.331044
 C          -6.818089      -28.243391       -4.281715
 H          -9.865849      -29.860102       -4.849518
 H          -8.666843      -30.295370       -3.764159
 H          -8.805718      -26.966175       -1.744535
 H          -8.117290      -28.544081       -1.770778
 H          -8.483652      -27.957163       -5.778544
 H          -7.576748      -29.347691       -5.933587
 H          -6.587068      -26.767942       -2.710314
 H          -7.639889      -26.247765       -3.931457
 H          -6.038009      -27.675774       -4.817841
 H          -6.389566      -29.077463       -3.688440
