20
 generated by VMD
 C         -37.957619     -107.991722      -37.303677
 N         -38.754021     -107.698799      -38.079037
 H         -40.755775     -108.269524      -34.703571
 H         -37.411720     -108.259293      -36.417088
 C         -41.022820     -109.389626      -34.534626
 C         -40.022518     -110.461853      -34.778843
 C         -42.357342     -109.693535      -33.960327
 C         -39.915070     -111.330589      -33.505947
 C         -42.232666     -110.511528      -32.699478
 C         -41.355412     -111.782722      -32.870262
 H         -39.068066     -110.064163      -35.123009
 H         -40.488918     -111.089592      -35.562466
 H         -42.928688     -108.795242      -33.697525
 H         -42.806328     -110.285408      -34.766247
 H         -39.302193     -110.688263      -32.681816
 H         -39.370766     -112.235703      -33.832985
 H         -43.140995     -110.809715      -32.306023
 H         -41.768055     -109.890839      -31.955227
 H         -41.283588     -112.426636      -31.984625
 H         -41.933098     -112.467865      -33.611980
