20
 generated by VMD
 C         -28.085693      -73.449127      -18.291086
 N         -28.987391      -73.422440      -17.571756
 H         -25.292795      -71.960632      -18.706287
 H         -27.368256      -73.391357      -19.233206
 C         -25.470646      -71.932693      -19.811377
 C         -24.495533      -72.801178      -20.644386
 C         -25.917778      -70.611221      -20.373772
 C         -25.209068      -73.094933      -22.061960
 C         -26.259863      -70.729195      -21.898752
 C         -25.527771      -71.796021      -22.745308
 H         -24.176754      -73.667557      -20.052177
 H         -23.652987      -72.215042      -20.788200
 H         -26.817509      -70.235046      -19.933342
 H         -25.181616      -69.737511      -20.296412
 H         -26.116846      -73.644226      -21.920393
 H         -24.602882      -73.729179      -22.699022
 H         -26.203493      -69.676369      -22.275803
 H         -27.360825      -70.862480      -22.009310
 H         -26.177500      -72.231255      -23.548792
 H         -24.578501      -71.420265      -23.103464
