20
 generated by VMD
 C         -62.683136     -173.697556      -55.507553
 N         -63.581978     -174.174454      -54.879894
 H         -62.022663     -171.977478      -58.259583
 H         -61.917191     -173.150513      -56.071083
 C         -62.886425     -171.343369      -58.373962
 C         -62.763844     -170.040024      -57.762474
 C         -63.974842     -171.854065      -59.271416
 C         -63.712700     -168.962570      -58.291752
 C         -64.773338     -170.727875      -59.942657
 C         -64.991936     -169.677124      -58.806934
 H         -61.724346     -169.639984      -57.873386
 H         -62.907619     -170.200455      -56.597965
 H         -63.511909     -172.494568      -59.997055
 H         -64.557884     -172.601715      -58.761120
 H         -63.181396     -168.485855      -59.179474
 H         -63.879040     -168.104034      -57.497246
 H         -65.710396     -171.046967      -60.352161
 H         -64.216980     -170.326309      -60.713745
 H         -65.632965     -168.837677      -59.198914
 H         -65.566711     -170.195114      -58.023964
