20
 generated by VMD
 C          -3.025429      -17.661747        2.691901
 N          -2.850823      -17.856710        1.610847
 H          -5.323431      -19.394918        0.988946
 H          -5.610240      -20.230669       -0.551013
 C          -5.853793      -19.329111        0.025929
 C          -5.517158      -18.105047       -0.725721
 C          -7.368402      -19.492830        0.232568
 C          -6.401727      -17.924381       -2.035128
 C          -8.104529      -19.499165       -1.070120
 C          -7.869780      -18.188938       -1.749500
 H          -4.423772      -18.112246       -0.985240
 H          -5.695779      -17.208527       -0.213782
 H          -7.615585      -20.430399        0.715061
 H          -7.719032      -18.786064        0.907923
 H          -5.972890      -18.512289       -2.874526
 H          -6.322954      -16.908583       -2.385876
 H          -9.215330      -19.518620       -0.853270
 H          -7.908684      -20.365839       -1.736044
 H          -8.415835      -18.223343       -2.687039
 H          -8.271692      -17.355352       -1.137785
