20
 generated by VMD
 C         -40.379105      -99.758232      -29.185472
 N         -39.703957     -100.139465      -28.325031
 H         -36.980198      -99.878448      -30.360777
 H         -41.165497      -99.607666      -29.913452
 C         -36.376022      -98.990318      -30.724113
 C         -35.855831      -98.915909      -32.120621
 C         -35.477440      -98.629814      -29.657490
 C         -34.678833      -98.083618      -32.446232
 C         -34.316135      -97.663719      -30.027695
 C         -33.684475      -98.104607      -31.336063
 H         -36.626560      -98.636047      -32.865459
 H         -35.566669      -99.939751      -32.416668
 H         -36.121395      -98.343025      -28.820658
 H         -34.986656      -99.585175      -29.284502
 H         -34.864262      -97.035469      -32.751545
 H         -34.175877      -98.480019      -33.357075
 H         -33.653385      -97.779381      -29.193398
 H         -34.505627      -96.570526      -30.029938
 H         -32.856869      -97.435127      -31.572603
 H         -33.170166      -99.098442      -31.200106
