20
 generated by VMD
 C         -33.636875      -96.728287      -25.894806
 N         -34.744297      -96.594955      -26.209301
 H         -35.219490      -93.855736      -27.466009
 H         -32.618965      -96.613472      -25.600574
 C         -34.964706      -94.196785      -28.448196
 C         -35.987343      -94.782936      -29.385828
 C         -33.631214      -93.864304      -28.952988
 C         -36.063240      -93.992210      -30.660898
 C         -33.774731      -92.968918      -30.225870
 C         -34.725414      -93.722969      -31.253941
 H         -37.007763      -94.728302      -28.935455
 H         -35.722244      -95.881851      -29.496645
 H         -33.151752      -93.264015      -28.173414
 H         -32.867607      -94.608337      -29.279734
 H         -36.549282      -92.994858      -30.586988
 H         -36.593933      -94.468353      -31.453978
 H         -32.753197      -92.838226      -30.566916
 H         -34.107029      -91.911606      -30.034924
 H         -34.583553      -93.142433      -32.117832
 H         -34.146946      -94.774857      -31.402996
