20
 generated by VMD
 C         -60.249939     -170.674011      -55.185562
 N         -59.210506     -171.210815      -55.261772
 H         -63.392525     -170.727112      -56.958218
 H         -61.242584     -170.203537      -55.236492
 C         -63.359119     -169.665176      -56.875324
 C         -62.455330     -168.790436      -57.567764
 C         -64.585403     -168.869904      -56.463310
 C         -62.946606     -167.922684      -58.683544
 C         -65.267242     -168.044083      -57.552784
 C         -64.254585     -167.134750      -58.391563
 H         -61.579773     -169.447586      -58.016239
 H         -62.065819     -168.230362      -56.816734
 H         -65.371239     -169.628601      -56.107204
 H         -64.240471     -168.250473      -55.629128
 H         -63.076511     -168.410339      -59.681820
 H         -62.192669     -167.054489      -58.902885
 H         -65.871010     -167.408813      -57.014088
 H         -65.803635     -168.628387      -58.224709
 H         -64.754730     -166.754517      -59.243595
 H         -63.876537     -166.247345      -57.807812
