20
 generated by VMD
 C         -28.180408      -82.371925      -26.790627
 N         -27.359589      -83.170120      -26.991064
 H         -31.165848      -84.093079      -26.556293
 H         -28.925703      -81.687019      -26.634460
 C         -31.631460      -84.746094      -25.845518
 C         -31.175463      -84.624275      -24.329639
 C         -32.181328      -86.158798      -26.188763
 C         -32.124310      -85.282448      -23.404211
 C         -33.117619      -86.740150      -25.151602
 C         -32.485294      -86.669266      -23.762337
 H         -30.935535      -83.515686      -24.167324
 H         -30.205557      -85.198219      -24.106913
 H         -32.589436      -86.144981      -27.249931
 H         -31.336298      -86.852623      -26.273228
 H         -33.102169      -84.764977      -23.268646
 H         -31.545181      -85.356415      -22.411819
 H         -33.415394      -87.716660      -25.500082
 H         -34.036308      -86.215965      -25.101147
 H         -33.338448      -86.956741      -23.116646
 H         -31.874384      -87.455444      -23.671745
