20
 generated by VMD
 C         -47.501972     -138.181320      -45.783215
 N         -47.182354     -138.044174      -46.840969
 H         -50.594055     -137.493378      -44.819851
 H         -47.835842     -138.599152      -44.849800
 C         -51.412350     -138.190338      -45.003853
 C         -51.501266     -138.919067      -46.253998
 C         -52.598339     -138.003647      -44.128204
 C         -52.656223     -139.901672      -46.382359
 C         -53.706448     -139.036499      -44.373066
 C         -53.989925     -139.236053      -45.806431
 H         -50.551418     -139.378860      -46.405472
 H         -51.750729     -138.181107      -47.027237
 H         -52.318531     -137.897156      -43.051167
 H         -52.886356     -136.985992      -44.405052
 H         -52.535378     -140.766739      -45.772327
 H         -52.676208     -140.191422      -47.447838
 H         -54.664440     -138.744110      -43.856953
 H         -53.494133     -139.950134      -44.021519
 H         -54.845901     -140.041351      -46.125595
 H         -54.261318     -138.331970      -46.374355
