20
 generated by VMD
 C         -78.061493     -210.009659      -76.413689
 N         -77.375038     -210.943008      -76.154861
 H         -80.212631     -212.834564      -75.075844
 H         -78.631523     -209.092926      -76.635010
 C         -80.178436     -212.946701      -73.976555
 C         -78.745918     -213.047531      -73.503052
 C         -81.181442     -213.809311      -73.246422
 C         -78.607468     -212.892319      -71.986984
 C         -80.956306     -213.740860      -71.735039
 C         -79.417633     -213.888962      -71.304657
 H         -78.221695     -212.260498      -74.032555
 H         -78.374123     -214.050140      -73.716797
 H         -82.141434     -213.300049      -73.535255
 H         -81.217255     -214.796555      -73.550652
 H         -78.960159     -211.877167      -71.712936
 H         -77.569717     -212.797821      -71.540962
 H         -81.588730     -214.463943      -71.110855
 H         -81.171890     -212.761810      -71.465897
 H         -79.400970     -213.644745      -70.273956
 H         -78.994637     -214.869873      -71.256012
