20
 generated by VMD
 C         -56.345013     -149.704208      -46.318287
 N         -56.630695     -150.584610      -45.640736
 H         -53.356548     -147.807144      -47.617786
 H         -56.029247     -148.960022      -47.070049
 C         -53.729820     -147.431107      -48.620590
 C         -52.919079     -147.722427      -49.881432
 C         -54.665234     -146.225815      -48.596684
 C         -53.780182     -147.497498      -51.126411
 C         -55.325333     -145.738129      -49.870609
 C         -54.466507     -146.048615      -51.133133
 H         -52.327198     -148.750961      -49.839001
 H         -52.102474     -147.086441      -49.869652
 H         -55.423077     -146.556549      -47.765854
 H         -54.194023     -145.360458      -48.104977
 H         -54.594913     -148.177612      -51.331383
 H         -53.225967     -147.407440      -52.071602
 H         -55.542126     -144.698547      -49.764233
 H         -56.290707     -146.301285      -49.910912
 H         -54.887833     -145.751480      -52.103363
 H         -53.633221     -145.385315      -50.963337
