20
 generated by VMD
 C         -23.626133      -69.184311      -16.609785
 N         -23.860237      -69.912109      -15.709043
 H         -23.926603      -66.366394      -18.816439
 H         -23.572107      -68.683441      -17.505251
 C         -24.402077      -67.191223      -19.502079
 C         -23.840605      -67.974251      -20.655502
 C         -25.957468      -67.276802      -19.305195
 C         -24.556541      -69.375885      -20.786879
 C         -26.501825      -68.682747      -19.337889
 C         -26.083725      -69.407539      -20.694275
 H         -22.766430      -68.163269      -20.523315
 H         -23.994555      -67.457954      -21.523252
 H         -26.115004      -66.699753      -18.337168
 H         -26.373564      -66.634247      -20.242325
 H         -24.078764      -70.071739      -20.036562
 H         -24.295156      -69.778572      -21.772676
 H         -27.636644      -68.601151      -19.192593
 H         -25.967175      -69.298386      -18.537781
 H         -26.576967      -70.392105      -20.824160
 H         -26.633440      -68.803467      -21.429953
