20
 generated by VMD
 C         -60.225681     -156.151825      -55.927029
 N         -60.607777     -155.079895      -55.553997
 H         -59.934837     -157.839661      -52.432594
 H         -59.847073     -157.191528      -56.000332
 C         -58.923710     -157.739380      -52.062382
 C         -58.233635     -156.387253      -52.242554
 C         -58.156105     -158.961807      -51.616272
 C         -57.211517     -156.066620      -51.071724
 C         -57.006161     -158.541107      -50.737259
 C         -56.223816     -157.296982      -51.010498
 H         -59.014683     -155.669189      -52.189175
 H         -57.735207     -156.105118      -53.131096
 H         -58.744072     -159.790588      -51.095192
 H         -57.642693     -159.434525      -52.493603
 H         -57.838978     -155.877838      -50.159397
 H         -56.612183     -155.188919      -51.102894
 H         -56.191471     -159.303146      -50.607555
 H         -57.390553     -158.451233      -49.635906
 H         -55.351437     -157.108276      -50.231956
 H         -55.623554     -157.427460      -51.884937
