20
 generated by VMD
 C         -21.972351      -55.321949      -17.445360
 N         -21.789062      -55.710567      -18.464821
 H         -21.763693      -56.812553      -14.022718
 H         -21.812050      -55.274193      -16.270220
 C         -21.319565      -57.753799      -14.116081
 C         -21.111155      -58.536457      -12.937454
 C         -20.483429      -58.044689      -15.354901
 C         -20.819443      -60.029915      -13.188616
 C         -20.173120      -59.547836      -15.597987
 C         -19.822777      -60.238323      -14.318793
 H         -21.965244      -58.426262      -12.258940
 H         -20.319193      -58.096992      -12.424225
 H         -21.148544      -57.713142      -16.210112
 H         -19.500845      -57.494827      -15.399655
 H         -21.770071      -60.581551      -13.434813
 H         -20.415325      -60.443619      -12.244938
 H         -19.317463      -59.633419      -16.321175
 H         -21.055868      -59.906025      -16.111616
 H         -19.652870      -61.312622      -14.611420
 H         -18.883875      -59.807362      -14.011926
