20
 generated by VMD
 C         -58.259850     -165.374985      -56.228947
 N         -57.453949     -166.033096      -56.662304
 H         -60.786640     -164.855103      -54.012596
 H         -59.007530     -164.702698      -55.882740
 C         -61.422691     -165.082138      -54.840160
 C         -61.691467     -166.553375      -54.927227
 C         -61.965675     -163.985428      -55.678490
 C         -63.260330     -166.602783      -55.113533
 C         -63.505802     -164.171967      -55.745998
 C         -63.831707     -165.634140      -56.167042
 H         -61.417248     -167.163361      -54.015739
 H         -61.331429     -166.909256      -55.852867
 H         -61.730167     -163.007294      -55.371861
 H         -61.632946     -164.096970      -56.769238
 H         -63.682434     -166.306580      -54.087418
 H         -63.470409     -167.690216      -55.140495
 H         -63.922482     -163.432831      -56.390343
 H         -63.851326     -163.866333      -54.682724
 H         -64.890862     -165.774216      -56.101562
 H         -63.463867     -165.766281      -57.127983
