20
 generated by VMD
 C         -54.357399     -148.159821      -45.410484
 N         -54.508160     -148.253372      -44.237553
 H         -54.438438     -148.114883      -48.783451
 H         -54.095436     -147.925430      -46.414253
 C         -54.251999     -147.016846      -48.982944
 C         -53.171497     -146.789536      -50.037659
 C         -55.174862     -145.875305      -48.411350
 C         -53.406441     -145.470184      -50.798832
 C         -55.134277     -144.539642      -49.309841
 C         -53.770775     -144.215027      -49.949242
 H         -53.337646     -147.502487      -50.825127
 H         -52.171875     -147.030670      -49.620461
 H         -56.251499     -146.132339      -48.226070
 H         -54.713333     -145.543488      -47.406902
 H         -54.181244     -145.549332      -51.573872
 H         -52.521309     -145.201172      -51.388702
 H         -55.419361     -143.687881      -48.612591
 H         -55.982834     -144.651367      -50.140900
 H         -53.718460     -143.154495      -50.442684
 H         -52.862072     -144.073914      -49.253689
