20
 generated by VMD
 C         -42.011215     -101.705307      -33.516460
 N         -40.940132     -101.787361      -33.875538
 H         -39.042397     -103.556625      -32.759232
 H         -43.101147     -101.597298      -33.212608
 C         -37.973640     -103.663437      -32.229794
 C         -36.829464     -103.655670      -33.157890
 C         -37.847603     -104.122269      -30.846132
 C         -35.778378     -102.758217      -32.373337
 C         -36.664925     -103.557076      -30.063917
 C         -35.388340     -103.470932      -31.061342
 H         -37.140198     -103.210335      -34.071232
 H         -36.367065     -104.596558      -33.443188
 H         -38.724037     -104.015366      -30.177877
 H         -37.738857     -105.181801      -30.805195
 H         -36.294235     -101.788414      -32.264320
 H         -34.859386     -102.547630      -33.005398
 H         -36.304619     -104.230324      -29.259266
 H         -37.056980     -102.670074      -29.563538
 H         -34.516739     -102.989616      -30.565945
 H         -35.063961     -104.442810      -31.422600
