20
 generated by VMD
 C         -70.231102     -181.341232      -62.652405
 N         -70.985153     -180.534683      -63.086964
 H         -67.026131     -181.875198      -60.508839
 H         -69.509254     -182.139099      -62.349701
 C         -66.500565     -180.934143      -60.794899
 C         -65.163948     -180.895142      -60.294048
 C         -67.231194     -179.625565      -60.570595
 C         -64.332054     -179.715744      -60.764851
 C         -66.476547     -178.431305      -60.880943
 C         -65.030235     -178.389496      -60.363834
 H         -64.650345     -181.874420      -60.627087
 H         -65.110764     -180.722443      -59.145542
 H         -68.116875     -179.713043      -61.247856
 H         -67.613274     -179.765518      -59.554527
 H         -64.317749     -179.742310      -61.891659
 H         -63.298645     -179.908188      -60.500286
 H         -67.096367     -177.598862      -60.461521
 H         -66.434532     -178.369720      -62.004272
 H         -64.486710     -177.483566      -60.844032
 H         -64.849655     -178.344742      -59.284298
