20
 generated by VMD
 C         -79.503693     -205.082703      -70.942070
 N         -80.576340     -205.425507      -70.895531
 H         -77.014465     -203.213257      -69.264488
 H         -78.449425     -204.831909      -70.766571
 C         -76.002197     -203.091431      -69.527710
 C         -75.483032     -201.943893      -70.281860
 C         -75.085159     -204.181641      -69.069023
 C         -74.012299     -201.721115      -70.464027
 C         -73.562019     -203.886810      -69.099602
 C         -73.049118     -202.969162      -70.192345
 H         -75.965874     -201.097641      -69.799316
 H         -75.937340     -201.976227      -71.327759
 H         -75.385689     -204.526779      -68.125900
 H         -75.252869     -204.994461      -69.693382
 H         -73.637688     -200.935898      -69.767807
 H         -73.795532     -201.213242      -71.471634
 H         -73.028183     -204.853867      -69.044044
 H         -73.289162     -203.349594      -68.195656
 H         -72.085533     -202.672760      -69.885178
 H         -72.942520     -203.477875      -71.097137
