20
 generated by VMD
 C         -52.523895     -147.038025      -45.320862
 N         -53.452305     -147.379303      -44.742306
 H         -54.458424     -147.182343      -47.818096
 H         -51.685963     -146.685074      -45.921898
 C         -54.522701     -146.349670      -48.518974
 C         -53.286808     -146.238220      -49.385113
 C         -55.375164     -145.015793      -48.067371
 C         -53.397125     -145.018280      -50.306744
 C         -55.238548     -143.810715      -49.067585
 C         -53.814243     -143.711288      -49.601120
 H         -53.171032     -147.062180      -50.048611
 H         -52.326202     -146.116638      -48.803135
 H         -56.374477     -145.260376      -47.997768
 H         -54.852798     -144.675934      -47.121288
 H         -54.106251     -145.129776      -51.035278
 H         -52.429497     -144.885452      -50.778576
 H         -55.646420     -142.926056      -48.626263
 H         -55.926720     -144.058731      -50.021355
 H         -53.874634     -142.902130      -50.388710
 H         -53.026863     -143.469086      -48.811787
