20
 generated by VMD
 C         -38.728439     -111.452927      -36.390209
 N         -38.347069     -110.480812      -36.829666
 H         -40.427311     -114.556564      -34.747925
 H         -39.003288     -112.491150      -36.240047
 C         -41.320896     -114.020180      -35.132324
 C         -41.716385     -114.249435      -36.576267
 C         -42.036659     -113.098061      -34.315716
 C         -43.215237     -114.091019      -36.879871
 C         -43.541454     -113.059380      -34.533321
 C         -43.792789     -112.921448      -36.045048
 H         -41.542259     -115.285294      -36.875088
 H         -41.030460     -113.624100      -37.228680
 H         -42.102966     -113.417564      -33.301517
 H         -41.634251     -112.069336      -34.422539
 H         -43.564369     -115.017212      -36.558563
 H         -43.396542     -113.904671      -37.973656
 H         -43.876823     -112.139511      -34.068623
 H         -44.035866     -114.000687      -34.241875
 H         -44.991756     -112.805840      -36.133640
 H         -43.347996     -111.951920      -36.426159
