20
 generated by VMD
 C         -78.660461     -204.410858      -70.661240
 N         -79.677803     -204.129532      -70.188789
 H         -76.406471     -203.162613      -67.999428
 H         -77.746712     -204.735107      -71.053368
 C         -75.532455     -202.706726      -68.533829
 C         -75.783272     -201.622330      -69.578476
 C         -74.272293     -203.568909      -68.772072
 C         -74.838493     -201.582428      -70.776489
 C         -73.059975     -202.837585      -69.335358
 C         -73.262138     -201.774307      -70.398956
 H         -75.956230     -200.703461      -68.955330
 H         -76.767464     -201.800079      -69.960129
 H         -74.018463     -204.161026      -67.877396
 H         -74.562706     -204.208603      -69.551041
 H         -74.940865     -200.616150      -71.265091
 H         -75.129288     -202.316681      -71.503540
 H         -72.425507     -203.714325      -69.770668
 H         -72.342300     -202.401489      -68.556107
 H         -72.793846     -200.955841      -69.802330
 H         -72.671860     -202.145096      -71.244789
