20
 generated by VMD
 C         -47.721325     -124.729164      -38.174477
 N         -47.275871     -125.651146      -38.708153
 H         -45.134552     -123.048981      -37.846752
 H         -47.843906     -123.902077      -37.509270
 C         -44.917847     -122.698105      -38.836277
 C         -43.754662     -123.405548      -39.500118
 C         -45.708069     -121.671715      -39.547092
 C         -44.266411     -123.950912      -40.788021
 C         -46.158066     -122.361351      -40.968201
 C         -44.868332     -122.759262      -41.642319
 H         -43.494473     -124.133835      -38.764385
 H         -42.782269     -122.727524      -39.660374
 H         -46.564751     -121.487251      -38.800701
 H         -45.155071     -120.769547      -39.698353
 H         -44.998005     -124.820610      -40.685608
 H         -43.509079     -124.498581      -41.506783
 H         -46.684406     -121.636421      -41.629505
 H         -46.991852     -123.023026      -40.782890
 H         -45.120979     -123.170769      -42.653416
 H         -44.145401     -121.905876      -41.792446
