20
 generated by VMD
 C         -68.068939     -185.865005      -67.535248
 N         -68.627884     -186.871887      -67.596344
 H         -68.415649     -187.627853      -64.598282
 H         -67.592300     -184.953354      -67.376892
 C         -69.222054     -187.542984      -63.882847
 C         -68.796852     -187.157822      -62.551289
 C         -70.731422     -187.802078      -64.173904
 C         -69.729591     -187.365555      -61.349823
 C         -71.424316     -188.386917      -62.941513
 C         -71.190506     -187.467728      -61.722992
 H         -68.394867     -186.161407      -62.496334
 H         -68.025566     -187.892593      -62.231407
 H         -71.192513     -186.834091      -64.406494
 H         -70.760033     -188.466629      -64.959534
 H         -69.462311     -186.511856      -60.715107
 H         -69.411812     -188.191284      -60.767143
 H         -71.017296     -189.348282      -62.515282
 H         -72.531090     -188.421051      -63.136425
 H         -71.428917     -186.444427      -61.974613
 H         -71.890236     -188.001587      -60.971870
