20
 generated by VMD
 C         -51.895725     -129.958588      -45.244087
 N         -51.754631     -129.573090      -46.333012
 H         -48.680191     -129.963486      -43.254257
 H         -52.355843     -130.374863      -44.333012
 C         -47.879143     -130.116058      -42.416462
 C         -47.872829     -131.489227      -41.795666
 C         -47.292286     -129.017380      -41.691963
 C         -46.572483     -131.733734      -40.991367
 C         -46.105858     -129.349426      -40.823391
 C         -46.170841     -130.675659      -40.029194
 H         -47.978237     -132.251617      -42.569118
 H         -48.633850     -131.645981      -41.080544
 H         -46.979881     -128.196869      -42.297279
 H         -48.074459     -128.561050      -41.016331
 H         -45.895405     -131.919586      -41.831261
 H         -46.560436     -132.706512      -40.463791
 H         -45.784237     -128.598511      -40.150127
 H         -45.304146     -129.599442      -41.455902
 H         -45.170155     -130.911987      -39.604412
 H         -46.816238     -130.675842      -39.175323
