20
 generated by VMD
 C          -3.991063      -20.571114        3.165081
 N          -4.505423      -19.618565        2.890862
 H          -5.153203      -19.164516       -0.319530
 H          -5.805697      -20.740828       -0.434738
 C          -5.948914      -19.721533       -0.840085
 C          -5.694447      -19.602663       -2.327829
 C          -7.302035      -19.107891       -0.404521
 C          -6.791754      -20.267866       -3.085024
 C          -8.478986      -19.719723       -1.274879
 C          -8.137430      -19.570332       -2.763100
 H          -4.760677      -20.151161       -2.478883
 H          -5.597787      -18.530354       -2.590812
 H          -7.457186      -19.467907        0.703354
 H          -7.288332      -17.980679       -0.510859
 H          -6.767715      -21.303711       -2.975676
 H          -6.634132      -20.058455       -4.140445
 H          -9.395656      -19.192606       -1.012113
 H          -8.560575      -20.729931       -0.948967
 H          -8.908947      -19.987095       -3.406114
 H          -7.898160      -18.513435       -3.033186
