20
 generated by VMD
 C         -68.004532     -178.883148      -58.206005
 N         -67.003654     -178.427475      -57.892216
 H         -65.785225     -176.739532      -59.218498
 H         -68.893883     -179.466766      -58.498043
 C         -65.224632     -175.831146      -59.444874
 C         -66.054222     -174.713959      -60.102711
 C         -63.804462     -175.800873      -59.770470
 C         -65.396065     -173.333511      -60.167477
 C         -63.215359     -174.509811      -59.677334
 C         -63.883007     -173.498947      -60.632698
 H         -67.188927     -174.724960      -59.838490
 H         -65.974915     -175.053925      -61.139038
 H         -63.424755     -176.577835      -59.038334
 H         -63.748936     -176.225845      -60.824215
 H         -65.330444     -172.919098      -59.193928
 H         -65.866249     -172.492126      -60.596035
 H         -62.175526     -174.459579      -59.876518
 H         -63.291927     -174.178238      -58.634388
 H         -63.406960     -172.442230      -60.674809
 H         -63.855709     -173.898758      -61.671551
