20
 generated by VMD
 C         -33.607357      -96.201698      -25.459120
 N         -34.210609      -96.754898      -26.297285
 H         -35.010475      -94.127922      -27.325773
 H         -33.118889      -95.560722      -24.680250
 C         -34.912537      -94.001801      -28.424017
 C         -35.959656      -94.640564      -29.320597
 C         -33.549763      -93.723602      -29.058292
 C         -36.119225      -93.679474      -30.449863
 C         -33.716084      -92.876289      -30.268360
 C         -34.835377      -93.451851      -31.189709
 H         -36.902782      -94.808907      -28.809828
 H         -35.557941      -95.680740      -29.634686
 H         -32.797268      -93.232887      -28.439877
 H         -33.097591      -94.742180      -29.269169
 H         -36.444542      -92.691116      -30.026388
 H         -36.878242      -93.969475      -31.225897
 H         -32.826763      -92.757500      -30.810175
 H         -34.009830      -91.798126      -29.981863
 H         -35.042480      -92.613228      -31.902328
 H         -34.304836      -94.430016      -31.827917
