20
 generated by VMD
 C         -20.018475      -50.118073       -9.686356
 N         -19.812277      -51.236717       -9.615643
 H         -16.883810      -48.357643       -9.908738
 H         -20.377003      -48.838886       -9.610849
 C         -16.866138      -48.573231      -10.996641
 C         -15.922167      -49.568523      -11.556026
 C         -17.357836      -47.592018      -12.014372
 C         -15.993656      -49.973328      -13.063958
 C         -17.871214      -48.326572      -13.252408
 C         -16.787628      -49.047955      -14.005830
 H         -15.854129      -50.417496      -10.851045
 H         -14.891070      -49.159172      -11.447656
 H         -18.161585      -46.913727      -11.622450
 H         -16.496428      -46.974911      -12.390759
 H         -16.312286      -51.008080      -13.172484
 H         -14.984256      -50.109631      -13.458397
 H         -18.387888      -47.692394      -13.914649
 H         -18.738565      -48.987949      -12.950523
 H         -17.270681      -49.592934      -14.832331
 H         -16.156675      -48.274178      -14.433200
