20
 generated by VMD
 C         -69.766846     -183.246201      -65.529106
 N         -70.509377     -182.453506      -65.985657
 H         -67.637794     -184.410934      -62.943569
 H         -69.131218     -184.030762      -65.195595
 C         -67.521561     -183.636490      -62.214165
 C         -67.809654     -184.157700      -60.809906
 C         -67.701500     -182.180527      -62.411865
 C         -67.065216     -183.375534      -59.691109
 C         -66.724762     -181.465637      -61.437500
 C         -67.210281     -181.841507      -60.002625
 H         -67.541611     -185.230057      -60.703918
 H         -68.889961     -184.092560      -60.619190
 H         -67.308075     -181.957870      -63.397449
 H         -68.807678     -182.187775      -62.420055
 H         -65.997917     -183.792114      -59.601906
 H         -67.598663     -183.667114      -58.785610
 H         -66.717789     -180.404129      -61.476673
 H         -65.740425     -181.859360      -61.633438
 H         -66.814445     -181.177856      -59.208805
 H         -68.382378     -181.683853      -59.950855
