20
 generated by VMD
 C         -26.493927      -71.896690      -17.507980
 N         -26.743719      -72.718689      -16.712357
 H         -24.257675      -69.376137      -18.883600
 H         -26.388895      -71.116127      -18.200356
 C         -24.648918      -69.745811      -19.791323
 C         -24.001232      -70.886726      -20.352009
 C         -25.768515      -68.969231      -20.476242
 C         -25.124479      -71.752693      -21.141373
 C         -26.778391      -69.747696      -21.227335
 C         -26.011612      -70.861923      -21.971102
 H         -23.534185      -71.615555      -19.641449
 H         -23.273096      -70.735680      -21.042709
 H         -26.176800      -68.257439      -19.827673
 H         -25.337200      -68.312492      -21.242773
 H         -25.716309      -72.263771      -20.282402
 H         -24.671612      -72.504707      -21.786070
 H         -27.267569      -69.058121      -21.927763
 H         -27.468098      -70.061974      -20.485744
 H         -26.717022      -71.451309      -22.583899
 H         -25.446350      -70.271454      -22.740593
