20
 generated by VMD
 C         -12.516419      -28.491791       -5.909669
 N         -13.249576      -27.676687       -5.683053
 H         -11.654160      -31.705412       -3.949660
 H         -11.196655      -30.178009       -4.890730
 C         -10.848676      -30.961517       -4.153699
 C          -9.751928      -31.636744       -4.973207
 C         -10.255376      -30.229439       -2.878926
 C          -8.633928      -30.721397       -5.291988
 C          -9.010327      -29.347956       -3.198164
 C          -8.028126      -30.138147       -4.020977
 H         -10.176275      -32.094589       -5.820069
 H          -9.285259      -32.471603       -4.386926
 H         -11.012347      -29.603724       -2.334331
 H          -9.925306      -30.975697       -2.160189
 H          -8.908241      -29.940584       -5.972346
 H          -7.889267      -31.233040       -5.852270
 H          -8.529996      -29.051931       -2.257397
 H          -9.336679      -28.447153       -3.770850
 H          -7.046396      -29.592327       -4.322614
 H          -7.561862      -30.908428       -3.375430
