20
 generated by VMD
 C         -61.510662     -155.923447      -54.759750
 N         -60.881023     -155.497330      -53.815746
 H         -58.993744     -155.186417      -51.869728
 H         -61.966690     -156.184174      -55.698826
 C         -57.954075     -155.224747      -51.603867
 C         -57.447529     -154.473373      -50.336838
 C         -56.912090     -155.656799      -52.599403
 C         -56.220989     -155.061646      -49.614338
 C         -55.712410     -156.215912      -51.797806
 C         -55.106571     -155.394485      -50.687180
 H         -58.314877     -154.372101      -49.711964
 H         -57.184578     -153.503998      -50.560810
 H         -57.421749     -156.526489      -53.242260
 H         -56.506245     -154.909225      -53.299065
 H         -56.547707     -155.980621      -49.088528
 H         -55.862530     -154.507095      -48.676327
 H         -54.946583     -156.325836      -52.612797
 H         -55.741718     -157.195068      -51.433418
 H         -54.203941     -155.777969      -50.192825
 H         -54.890102     -154.391068      -51.225567
