20
 generated by VMD
 C         -47.895290     -134.788788      -46.485420
 N         -47.873913     -134.583435      -47.579826
 H         -50.598217     -134.624100      -45.340816
 H         -47.958088     -135.035126      -45.400368
 C         -50.848743     -135.454346      -44.597904
 C         -51.296906     -136.724884      -45.331009
 C         -51.188568     -135.282501      -43.191589
 C         -51.242374     -137.957687      -44.511627
 C         -51.011818     -136.546494      -42.344173
 C         -51.609791     -137.697098      -43.043526
 H         -50.791416     -136.724243      -46.262058
 H         -52.363705     -136.392410      -45.508553
 H         -50.453114     -134.516098      -42.842575
 H         -52.248829     -134.822037      -43.116524
 H         -50.141998     -138.199768      -44.563866
 H         -51.855827     -138.751465      -44.841988
 H         -51.378540     -136.426285      -41.360111
 H         -49.987095     -136.785156      -42.154148
 H         -51.487434     -138.728745      -42.369690
 H         -52.714161     -137.584045      -42.836288
