20
 generated by VMD
 C         -70.300797     -182.689926      -65.158707
 N         -70.718880     -183.726868      -65.563766
 H         -67.972313     -181.398102      -63.031506
 H         -69.862244     -181.794144      -64.764366
 C         -67.545441     -181.395874      -61.993031
 C         -67.733223     -182.548416      -61.161720
 C         -67.002747     -180.171875      -61.452946
 C         -66.481857     -182.843597      -60.224281
 C         -65.907364     -180.411346      -60.406296
 C         -66.100540     -181.635971      -59.436241
 H         -68.120987     -183.350967      -61.790714
 H         -68.441826     -182.333786      -60.462654
 H         -66.595856     -179.506195      -62.306171
 H         -67.847023     -179.515991      -60.969196
 H         -65.548973     -183.050232      -60.879372
 H         -66.786697     -183.872299      -59.736763
 H         -65.651062     -179.435516      -59.971462
 H         -64.956352     -180.702988      -60.936920
 H         -65.151070     -181.861832      -58.938389
 H         -66.833298     -181.494476      -58.617569
