20
 generated by VMD
 C         -19.429470      -61.520435      -16.481441
 N         -19.885115      -60.498047      -16.283108
 H         -21.951221      -62.824013      -18.345507
 H         -18.917517      -62.435368      -16.859863
 C         -22.912657      -63.010857      -17.867764
 C         -24.048050      -63.387470      -18.705423
 C         -23.045410      -63.138981      -16.355545
 C         -24.672731      -64.654671      -18.199171
 C         -23.530947      -64.492668      -15.972783
 C         -24.900982      -64.769569      -16.600252
 H         -23.674738      -63.643433      -19.692516
 H         -24.686586      -62.593056      -18.879000
 H         -22.172171      -62.896400      -15.757250
 H         -23.718023      -62.366913      -16.107822
 H         -23.855015      -65.354332      -18.235559
 H         -25.548414      -64.946533      -18.712442
 H         -23.503973      -64.654396      -14.850854
 H         -22.835732      -65.294426      -16.304739
 H         -25.153374      -65.872574      -16.418282
 H         -25.703030      -64.083916      -16.360037
