20
 generated by VMD
 C         -67.252922     -189.703247      -67.020782
 N         -66.848717     -190.106857      -66.043007
 H         -70.556915     -190.789566      -66.143219
 H         -67.459099     -189.396332      -68.070541
 C         -71.104103     -190.317780      -65.355133
 C         -72.142578     -191.146667      -64.666824
 C         -70.535347     -189.211166      -64.693031
 C         -73.178116     -190.093369      -64.256836
 C         -71.400162     -188.337280      -63.744694
 C         -72.602417     -189.189651      -63.167870
 H         -71.635689     -191.548660      -63.761822
 H         -72.576752     -191.783081      -65.416428
 H         -69.791481     -189.684555      -64.067505
 H         -70.125710     -188.651535      -65.554657
 H         -74.030518     -190.610962      -63.811390
 H         -73.423119     -189.428864      -65.177574
 H         -71.793938     -187.470078      -64.354149
 H         -70.779823     -187.907913      -62.973080
 H         -72.476814     -189.779404      -62.250423
 H         -73.337921     -188.485138      -62.832088
