20
 generated by VMD
 C         -18.039709      -48.554825       -7.306306
 N         -17.972607      -48.304150       -6.228327
 H         -16.358425      -48.488510      -10.343770
 H         -15.846487      -49.026840      -11.919662
 C         -16.267717      -48.096077      -11.394999
 C         -15.334000      -46.891808      -11.536510
 C         -17.714449      -47.810596      -11.944028
 C         -15.273582      -46.543968      -13.016637
 C         -17.780310      -47.278252      -13.343555
 C         -16.701107      -46.257374      -13.508689
 H         -14.363241      -47.123821      -11.195766
 H         -15.621790      -45.960289      -11.058002
 H         -18.259300      -48.753868      -11.893874
 H         -18.152365      -47.053684      -11.325563
 H         -14.811724      -47.370827      -13.565432
 H         -14.654840      -45.620007      -13.136563
 H         -18.840975      -47.023384      -13.571750
 H         -17.553587      -48.119431      -14.082168
 H         -16.625069      -46.057941      -14.618896
 H         -17.031145      -45.323563      -12.983677
