20
 generated by VMD
 C         -11.671303      -41.436714       -6.697540
 N         -11.283571      -42.378258       -6.281239
 H         -14.712000      -42.344040       -8.309377
 H         -15.190904      -41.331112       -9.740808
 C         -15.254374      -42.263084       -9.186667
 C         -16.718834      -42.556362       -8.893734
 C         -14.760007      -43.346256      -10.158522
 C         -17.629738      -42.558247      -10.134113
 C         -15.569386      -43.323112      -11.460512
 C         -17.101105      -43.445419      -11.265859
 H         -17.100760      -41.785709       -8.233851
 H         -16.862070      -43.418201       -8.269587
 H         -13.731584      -43.184647      -10.369421
 H         -14.899796      -44.320786       -9.730767
 H         -17.672382      -41.545692      -10.517993
 H         -18.637323      -42.853443       -9.793133
 H         -15.167252      -44.127266      -12.199911
 H         -15.415440      -42.358643      -11.851262
 H         -17.737303      -43.174789      -12.141138
 H         -17.297974      -44.508137      -11.014853
