20
 generated by VMD
 C         -60.830647     -154.937683      -51.523956
 N         -60.790318     -153.989716      -52.265442
 H         -57.693386     -153.647919      -52.894093
 H         -60.732708     -155.814209      -50.889275
 C         -56.902847     -153.752197      -52.168495
 C         -57.379227     -154.014389      -50.829773
 C         -55.562504     -153.103195      -52.438343
 C         -56.248894     -154.370605      -49.924858
 C         -54.399147     -153.498032      -51.414734
 C         -54.919209     -153.428879      -49.982197
 H         -58.078331     -154.924728      -50.776070
 H         -57.905495     -153.048325      -50.590759
 H         -55.261845     -153.359024      -53.460594
 H         -55.746887     -152.046890      -52.332222
 H         -55.894711     -155.367477      -50.205856
 H         -56.598423     -154.167160      -48.962341
 H         -53.514946     -152.776688      -51.614605
 H         -53.986141     -154.470123      -51.499187
 H         -54.113873     -153.741302      -49.284687
 H         -55.383778     -152.369339      -49.838802
