20
 generated by VMD
 C         -49.714993     -133.137314      -46.929848
 N         -48.958511     -132.330582      -47.069904
 H         -48.122997     -134.425293      -44.480339
 H         -50.123959     -134.122894      -46.690823
 C         -48.982635     -134.701904      -43.907001
 C         -49.286957     -136.168060      -44.099205
 C         -49.863758     -133.764542      -43.163502
 C         -50.048050     -136.733673      -42.910763
 C         -50.550327     -134.497803      -42.007519
 C         -51.226353     -135.813431      -42.489632
 H         -48.345184     -136.683258      -44.220898
 H         -49.863976     -136.309021      -45.071568
 H         -49.284962     -132.956024      -42.850689
 H         -50.640999     -133.405518      -43.778698
 H         -49.231468     -136.853363      -42.210812
 H         -50.232025     -137.826645      -43.055912
 H         -51.304726     -133.779678      -41.507668
 H         -49.794792     -134.788879      -41.187366
 H         -51.731407     -136.298355      -41.769161
 H         -51.732342     -135.662125      -43.463894
