20
 generated by VMD
 C         -69.606766     -185.070312      -66.705330
 N         -69.083351     -184.800034      -67.690681
 H         -69.502968     -183.229111      -63.213657
 H         -70.160599     -185.367920      -65.834885
 C         -69.260406     -183.286697      -62.142250
 C         -69.657845     -184.483978      -61.268291
 C         -68.110916     -182.260284      -61.696121
 C         -68.374802     -185.316971      -60.912468
 C         -66.924492     -183.240067      -61.315453
 C         -67.292381     -184.459946      -60.398701
 H         -70.444260     -184.975311      -61.875710
 H         -70.198746     -184.241989      -60.332565
 H         -67.897575     -181.537125      -62.422684
 H         -68.359695     -181.795135      -60.741314
 H         -68.036278     -185.956726      -61.770027
 H         -68.807602     -186.019791      -60.182453
 H         -66.234001     -182.551743      -60.730206
 H         -66.452629     -183.786148      -62.098965
 H         -66.457451     -185.011871      -60.090408
 H         -67.726822     -183.888535      -59.562973
