20
 generated by VMD
 C         -59.852409     -156.983353      -56.659184
 N         -60.959755     -156.566177      -56.583858
 H         -59.571236     -157.353210      -53.468044
 H         -58.860809     -157.348419      -56.531174
 C         -58.989517     -157.890808      -52.651329
 C         -57.812218     -157.177994      -52.243740
 C         -59.020523     -159.353531      -52.457840
 C         -57.322308     -157.531418      -50.764095
 C         -58.502434     -159.739227      -51.128769
 C         -57.187840     -159.091034      -50.793938
 H         -57.917141     -156.111374      -52.133408
 H         -56.933285     -157.320541      -53.046989
 H         -60.076366     -159.813370      -52.509506
 H         -58.496864     -159.656174      -53.352367
 H         -57.982376     -156.905701      -49.959763
 H         -56.355396     -157.063049      -50.612850
 H         -58.192604     -160.787506      -51.191246
 H         -59.203873     -159.782654      -50.240532
 H         -56.715519     -159.552200      -49.819679
 H         -56.517155     -159.333954      -51.585804
