20
 generated by VMD
 C         -40.077530     -100.729752      -30.877962
 N         -40.404568      -99.900764      -31.598749
 H         -37.334377     -103.065697      -31.232889
 H         -39.652294     -101.397652      -30.117544
 C         -36.586166     -102.321426      -31.246565
 C         -36.508854     -101.560211      -32.587929
 C         -35.749882     -101.801300      -30.024654
 C         -36.170174     -100.053795      -32.420094
 C         -35.550869     -100.287613      -29.954197
 C         -35.340935      -99.544342      -31.283472
 H         -37.468990     -101.801437      -33.089481
 H         -35.724777     -102.076187      -33.109570
 H         -36.229061     -102.063843      -29.094910
 H         -34.738255     -102.349777      -29.982641
 H         -37.205959      -99.488556      -32.335094
 H         -35.746521      -99.804092      -33.407955
 H         -34.640083     -100.179535      -29.321154
 H         -36.350025      -99.883522      -29.284399
 H         -35.390682      -98.468315      -31.077957
 H         -34.306824      -99.601479      -31.635017
