20
 generated by VMD
 C         -64.208305     -175.122665      -55.933479
 N         -63.341160     -175.419968      -56.633373
 H         -65.843910     -173.962921      -58.471668
 H         -65.011505     -174.920654      -55.268848
 C         -65.161743     -173.097794      -58.674347
 C         -65.589256     -171.781113      -58.242970
 C         -64.466896     -173.088165      -59.953171
 C         -64.500069     -170.640274      -58.354832
 C         -63.107254     -172.267822      -59.923008
 C         -63.427505     -170.725296      -59.564220
 H         -65.892738     -171.845169      -57.206036
 H         -66.456116     -171.349854      -58.856079
 H         -64.184280     -174.143097      -60.206200
 H         -65.032127     -172.506104      -60.677914
 H         -63.937927     -170.897720      -57.524254
 H         -64.917000     -169.700882      -58.138599
 H         -62.631603     -172.518448      -60.877575
 H         -62.317249     -172.629364      -59.187672
 H         -62.567562     -170.109818      -59.384037
 H         -63.887390     -170.268616      -60.469643
