20
 generated by VMD
 C         -15.252475      -47.270832       -6.281954
 N         -15.344089      -46.868092       -5.243845
 H         -16.290422      -46.644760       -9.889334
 H         -15.012347      -46.292591      -11.158736
 C         -16.095093      -46.215988      -10.856784
 C         -16.412523      -44.682747      -10.850995
 C         -16.926052      -47.076511      -11.808286
 C         -16.351370      -44.277077      -12.302075
 C         -16.857386      -46.668594      -13.241879
 C         -17.166159      -45.195370      -13.278139
 H         -15.761726      -44.133415      -10.188976
 H         -17.421427      -44.445217      -10.539116
 H         -16.652121      -48.099262      -11.685909
 H         -17.983250      -47.088135      -11.517258
 H         -15.330162      -44.397709      -12.658056
 H         -16.530930      -43.206760      -12.392595
 H         -17.564482      -47.226276      -13.803600
 H         -15.885766      -47.014874      -13.686600
 H         -16.980143      -44.881886      -14.287251
 H         -18.256630      -45.017853      -13.099526
