20
 generated by VMD
 C         -40.362106     -116.970032      -34.361614
 N         -39.444160     -116.327637      -34.587978
 H         -41.433216     -115.768188      -37.891174
 H         -40.979469     -117.853966      -34.032310
 C         -42.539272     -115.972862      -37.959309
 C         -43.170353     -116.089043      -39.354004
 C         -43.268559     -116.035110      -36.702282
 C         -44.554848     -116.789261      -39.313782
 C         -44.527775     -116.876961      -36.802742
 C         -45.449184     -116.492287      -38.159763
 H         -42.509468     -116.596420      -40.123764
 H         -43.388496     -115.081223      -39.755772
 H         -42.608883     -116.407188      -35.823963
 H         -43.619507     -115.063103      -36.333015
 H         -44.363331     -117.826813      -39.302502
 H         -45.111893     -116.521294      -40.213566
 H         -45.197872     -116.716103      -35.910122
 H         -44.535667     -117.985931      -36.881279
 H         -46.290821     -117.155464      -38.041656
 H         -45.585186     -115.436607      -37.991936
