20
 generated by VMD
 C          -1.969891      -17.707394        2.114063
 N          -1.635380      -17.080570        2.970689
 H          -5.243196      -17.541866        0.957759
 H          -5.171016      -18.799713       -0.220985
 C          -5.819218      -18.020308        0.153381
 C          -6.120472      -16.978966       -0.984081
 C          -7.022606      -18.871063        0.540413
 C          -6.894183      -17.710098       -2.138669
 C          -7.765513      -19.442179       -0.648405
 C          -8.153970      -18.376249       -1.658875
 H          -5.228724      -16.465162       -1.287038
 H          -6.818393      -16.168161       -0.588202
 H          -6.801531      -19.695887        1.281707
 H          -7.745477      -18.316448        1.144951
 H          -6.270244      -18.364811       -2.679009
 H          -7.163879      -17.010170       -2.952137
 H          -8.682958      -19.971008       -0.313524
 H          -7.147422      -20.278900       -1.111575
 H          -8.706877      -18.793385       -2.527428
 H          -8.816168      -17.618141       -1.230312
