20
 generated by VMD
 C         -58.113171     -150.843643      -49.029827
 N         -58.228062     -151.915115      -48.664955
 H         -55.868793     -149.821182      -47.821651
 H         -57.958961     -149.885666      -49.436092
 C         -55.333191     -149.499268      -48.750710
 C         -54.318192     -150.381912      -49.507439
 C         -55.133549     -147.940796      -48.882088
 C         -54.139713     -149.992371      -50.965401
 C         -54.894146     -147.603607      -50.369339
 C         -53.786751     -148.527466      -51.064590
 H         -54.545883     -151.425201      -49.598282
 H         -53.312271     -150.125580      -49.058594
 H         -56.145409     -147.617004      -48.535404
 H         -54.265568     -147.577469      -48.259636
 H         -55.124599     -149.988586      -51.470329
 H         -53.440075     -150.777191      -51.413166
 H         -54.694653     -146.565903      -50.405228
 H         -55.830757     -147.667709      -51.134106
 H         -53.768444     -148.371521      -52.207531
 H         -52.757893     -148.411896      -50.737377
