20
 generated by VMD
 C         -59.920074     -153.036163      -51.153683
 N         -60.623806     -152.258621      -51.703892
 H         -57.063076     -153.484802      -49.605656
 H         -59.211018     -153.773773      -50.752022
 C         -56.248146     -152.768082      -49.744583
 C         -54.809841     -153.230652      -49.480499
 C         -56.534168     -151.439362      -50.321823
 C         -53.891315     -152.476486      -50.404972
 C         -55.601700     -150.838806      -51.451710
 C         -54.145763     -151.046265      -50.881069
 H         -54.792591     -154.269562      -49.569862
 H         -54.538330     -153.026901      -48.440983
 H         -57.596123     -151.358368      -50.648724
 H         -56.395908     -150.791855      -49.416744
 H         -53.804462     -153.017105      -51.379829
 H         -52.920258     -152.487488      -49.972031
 H         -55.897060     -149.839584      -51.543026
 H         -55.930683     -151.313812      -52.381592
 H         -53.483635     -150.907898      -51.724583
 H         -53.895832     -150.288193      -50.137936
