20
 generated by VMD
 C          -1.672363      -13.055416        0.631649
 N          -0.880034      -13.830028        0.701489
 H          -3.850514      -14.402573        1.784560
 H          -4.916801      -14.282496        0.416041
 C          -4.705294      -14.854159        1.305948
 C          -5.993178      -14.716648        2.091432
 C          -4.376678      -16.337185        0.953582
 C          -7.106767      -15.281974        1.359139
 C          -5.555583      -17.049091        0.245051
 C          -6.893503      -16.804829        1.004130
 H          -6.188882      -13.687593        2.330921
 H          -5.830311      -15.182634        3.071466
 H          -3.362715      -16.468542        0.370870
 H          -4.206160      -16.937382        1.952337
 H          -7.342459      -14.776438        0.408129
 H          -8.026421      -15.167874        1.951266
 H          -5.319494      -18.149546        0.129217
 H          -5.683248      -16.716917       -0.793087
 H          -7.682295      -17.058847        0.290138
 H          -7.029421      -17.506180        1.831941
