20
 generated by VMD
 C         -38.126244     -109.662148      -36.485229
 N         -37.480068     -108.922653      -35.833714
 H         -40.818058     -111.927513      -37.101242
 H         -38.726952     -110.343765      -37.157448
 C         -41.540630     -112.027840      -36.328503
 C         -42.284290     -113.341011      -36.321693
 C         -41.747990     -111.075974      -35.215759
 C         -42.487434     -113.942703      -34.972996
 C         -42.173851     -111.740631      -33.853207
 C         -43.222374     -112.894493      -34.122910
 H         -41.656116     -114.064232      -36.876984
 H         -43.197533     -113.176949      -36.919064
 H         -40.873791     -110.492340      -34.924835
 H         -42.477528     -110.273849      -35.323586
 H         -41.653023     -114.398895      -34.567974
 H         -43.102440     -114.913170      -35.101463
 H         -42.444889     -110.971909      -33.165421
 H         -41.292980     -112.198540      -33.487026
 H         -43.741463     -113.283150      -33.246571
 H         -44.035553     -112.468636      -34.907505
