20
 generated by VMD
 C         -10.020799      -36.550751       -7.130635
 N         -10.247903      -36.615406       -8.239718
 H         -13.388466      -37.995075       -8.048177
 H         -14.618164      -38.470253       -6.797693
 C         -14.166566      -38.797302       -7.716670
 C         -13.480021      -40.139652       -7.555432
 C         -15.264070      -38.811527       -8.751370
 C         -14.471697      -41.283131       -7.516825
 C         -16.273098      -39.921329       -8.423473
 C         -15.541724      -41.212124       -8.524573
 H         -12.891144      -40.120235       -6.631334
 H         -12.639750      -40.313843       -8.251804
 H         -15.766786      -37.847511       -8.705610
 H         -14.950503      -38.843090       -9.807518
 H         -15.012727      -41.395012       -6.538439
 H         -13.933931      -42.235676       -7.554469
 H         -17.132519      -39.934807       -9.129906
 H         -16.690254      -39.765396       -7.403842
 H         -16.211157      -42.013012       -8.334755
 H         -15.175420      -41.324539       -9.545071
