20
 generated by VMD
 C         -79.283455     -204.573639      -70.759827
 N         -80.270912     -205.120712      -70.695061
 H         -76.755104     -202.735168      -68.482208
 H         -78.300133     -204.016220      -70.753632
 C         -75.857002     -202.985229      -69.135056
 C         -75.633278     -202.193466      -70.384926
 C         -74.772209     -203.953110      -68.854156
 C         -74.280518     -201.457199      -70.277008
 C         -73.322906     -203.570160      -69.234489
 C         -73.139870     -202.591629      -70.373932
 H         -76.397453     -201.517059      -70.721642
 H         -75.603050     -202.887070      -71.252083
 H         -74.768623     -204.084518      -67.756592
 H         -75.036591     -204.820862      -69.402252
 H         -74.247894     -200.864136      -69.346825
 H         -74.066650     -200.712631      -71.079697
 H         -72.653099     -204.416855      -69.476746
 H         -72.961319     -203.122528      -68.392197
 H         -72.183853     -202.097748      -70.310684
 H         -73.295158     -203.141266      -71.274384
