20
 generated by VMD
 C         -50.635315     -128.716202      -42.244293
 N         -51.625423     -128.264984      -41.831657
 H         -48.026722     -127.862862      -40.342644
 H         -49.857071     -129.319534      -42.653183
 C         -47.033768     -127.543282      -40.742744
 C         -45.868370     -128.154160      -40.165741
 C         -46.983727     -126.089867      -41.223442
 C         -44.538548     -127.718338      -40.917244
 C         -45.644165     -125.851349      -41.957848
 C         -44.464787     -126.232079      -41.084560
 H         -45.910801     -129.255432      -40.271130
 H         -45.728184     -127.935005      -39.123028
 H         -47.629223     -125.785316      -41.999462
 H         -46.930328     -125.483757      -40.248344
 H         -44.581463     -128.068008      -41.948551
 H         -43.679424     -128.011490      -40.335114
 H         -45.525421     -124.802948      -42.287926
 H         -45.552036     -126.431648      -42.885109
 H         -43.504604     -126.006058      -41.629086
 H         -44.302616     -125.723465      -40.129642
