20
 generated by VMD
 C         -15.114209      -46.205093       -6.139055
 N         -14.754892      -47.235382       -5.905844
 H         -15.680352      -44.829044       -9.364130
 H         -14.616405      -44.986366      -10.761581
 C         -15.671084      -44.979855      -10.471157
 C         -16.460941      -43.789906      -11.117712
 C         -16.371607      -46.259739      -10.805194
 C         -16.644176      -43.906265      -12.591873
 C         -16.533924      -46.448589      -12.335268
 C         -17.262873      -45.218773      -12.965493
 H         -15.836430      -42.908520      -10.902591
 H         -17.377283      -43.699505      -10.573239
 H         -15.922091      -47.133492      -10.373947
 H         -17.346727      -46.184772      -10.378206
 H         -15.693139      -43.722763      -13.117594
 H         -17.387644      -43.188217      -12.912830
 H         -17.140762      -47.354717      -12.542468
 H         -15.576797      -46.566086      -12.819943
 H         -17.424654      -45.262867      -14.084523
 H         -18.267252      -45.117126      -12.514046
