20
 generated by VMD
 C         -80.149353     -206.859543      -74.023865
 N         -80.572678     -206.941315      -75.108253
 H         -77.063828     -207.139481      -73.021576
 H         -79.786606     -206.608521      -72.980034
 C         -76.645943     -207.582855      -72.039894
 C         -75.318230     -207.074982      -71.377922
 C         -77.273674     -208.658829      -71.307907
 C         -75.499130     -206.857849      -69.852722
 C         -77.589050     -208.299561      -69.954376
 C         -76.221481     -208.005371      -69.226639
 H         -74.880692     -206.144119      -71.838158
 H         -74.664856     -207.929230      -71.675758
 H         -78.037941     -209.188141      -71.809990
 H         -76.518135     -209.475693      -71.157700
 H         -75.976189     -205.919220      -69.695595
 H         -74.485321     -206.738876      -69.445427
 H         -78.042892     -209.149292      -69.464882
 H         -78.202545     -207.423126      -69.734184
 H         -76.477837     -207.641693      -68.142738
 H         -75.748741     -208.946976      -69.027184
