20
 generated by VMD
 C         -28.540489      -86.591301      -26.678236
 N         -27.564320      -87.242683      -26.581736
 H         -31.047001      -87.863647      -25.071281
 H         -29.444506      -85.907402      -26.930420
 C         -31.996124      -87.831207      -25.608913
 C         -33.127674      -88.085724      -24.738434
 C         -32.134926      -87.914078      -27.116850
 C         -34.443115      -87.586311      -25.248386
 C         -33.496643      -87.418892      -27.541840
 C         -34.677383      -88.082329      -26.604929
 H         -32.922291      -87.517448      -23.855255
 H         -33.318119      -89.057823      -24.352953
 H         -31.457479      -87.142601      -27.552549
 H         -31.916451      -88.923737      -27.507917
 H         -34.567944      -86.461487      -25.213646
 H         -35.289059      -87.966774      -24.606764
 H         -33.646812      -87.610504      -28.603956
 H         -33.582218      -86.326073      -27.385574
 H         -35.542675      -87.771339      -27.101917
 H         -34.575607      -89.073158      -26.665096
