20
 generated by VMD
 C         -50.091175     -144.630463      -44.371086
 N         -49.306561     -143.902084      -44.886471
 H         -52.285069     -142.294296      -45.753319
 H         -50.783318     -145.456345      -44.071056
 C         -52.988564     -142.233536      -46.600449
 C         -52.348122     -142.165436      -47.897434
 C         -54.375469     -141.630768      -46.504089
 C         -53.300320     -142.566452      -49.033840
 C         -55.370041     -141.983536      -47.716286
 C         -54.689240     -141.821640      -49.139381
 H         -51.579861     -142.960327      -47.880165
 H         -51.881989     -141.144241      -48.002506
 H         -54.873558     -142.023865      -45.616703
 H         -54.364887     -140.461731      -46.566448
 H         -53.486897     -143.762161      -49.070595
 H         -52.664738     -142.298096      -49.967480
 H         -56.353298     -141.491562      -47.734234
 H         -55.578880     -143.052765      -47.417942
 H         -55.432201     -142.175690      -49.958252
 H         -54.392723     -140.684692      -49.407574
