20
 generated by VMD
 C         -29.500189      -89.844269      -25.314751
 N         -29.146090      -90.895935      -25.554543
 H         -32.216736      -91.646126      -27.542627
 H         -29.898165      -88.958244      -24.982731
 C         -33.040180      -90.960541      -27.595701
 C         -34.431686      -91.376549      -27.501062
 C         -32.811485      -89.676727      -28.335949
 C         -35.423180      -90.188690      -27.067717
 C         -33.931393      -88.642967      -27.983820
 C         -35.324444      -89.207481      -28.213512
 H         -34.472431      -92.157234      -26.671400
 H         -34.737511      -91.886215      -28.442404
 H         -31.843307      -89.319008      -27.883863
 H         -32.575027      -89.790871      -29.381578
 H         -35.093620      -89.804718      -26.049898
 H         -36.489635      -90.728981      -27.005999
 H         -33.954700      -87.793961      -28.728155
 H         -33.799175      -88.208611      -26.975233
 H         -36.000759      -88.391884      -28.314301
 H         -35.295364      -89.611656      -29.156307
