20
 generated by VMD
 C         -40.055382      -99.520775      -28.818558
 N         -39.277355     -100.078400      -28.125320
 H         -37.415653      -98.357101      -30.692751
 H         -40.897160      -99.089699      -29.284908
 C         -36.364925      -98.377403      -30.791573
 C         -35.720760      -98.836746      -32.005886
 C         -35.465164      -98.281425      -29.541567
 C         -34.634708      -97.855309      -32.383656
 C         -34.383194      -97.397400      -30.085335
 C         -33.673496      -97.822296      -31.249784
 H         -36.473293      -98.856819      -32.756943
 H         -35.448860      -99.884354      -31.770340
 H         -35.999153      -97.952812      -28.702162
 H         -34.942413      -99.214554      -29.265362
 H         -35.063305      -96.843033      -32.543346
 H         -34.301445      -98.169258      -33.299316
 H         -33.693462      -97.217064      -29.288054
 H         -34.660564      -96.320663      -30.334177
 H         -32.822319      -97.146393      -31.477007
 H         -33.188099      -98.783470      -31.242268
