20
 generated by VMD
 C         -29.375866      -74.329842      -20.222467
 N         -30.397367      -74.845459      -20.262348
 H         -26.093870      -74.044441      -18.906754
 H         -28.423687      -73.635155      -20.254639
 C         -26.132011      -73.842651      -19.967817
 C         -25.747717      -75.000984      -20.793131
 C         -25.747057      -72.504868      -20.445444
 C         -26.048805      -74.795410      -22.252922
 C         -26.064384      -72.268471      -21.923615
 C         -25.580137      -73.495331      -22.693758
 H         -26.044397      -75.950851      -20.402328
 H         -24.558836      -75.031700      -20.821461
 H         -26.164665      -71.660950      -19.721605
 H         -24.686314      -72.507980      -20.206915
 H         -27.129868      -74.777740      -22.444252
 H         -25.679993      -75.677330      -22.767645
 H         -25.788746      -71.289589      -22.199778
 H         -27.176727      -72.178230      -22.040442
 H         -25.837877      -73.303986      -23.746462
 H         -24.504560      -73.508247      -22.736303
