20
 generated by VMD
 C         -11.647781      -41.107151       -7.583073
 N         -11.716115      -40.531448       -6.643857
 H         -13.930299      -40.568306       -8.374695
 H         -15.194622      -40.086494       -9.513233
 C         -14.720984      -41.014008       -9.032564
 C         -15.751256      -41.641682       -8.089228
 C         -14.311399      -41.986485      -10.126382
 C         -16.964323      -42.179394       -8.909698
 C         -15.541039      -42.315678      -10.948037
 C         -16.542482      -43.035309      -10.063096
 H         -16.081646      -40.977913       -7.311251
 H         -15.280891      -42.541245       -7.618141
 H         -13.579833      -41.484402      -10.730192
 H         -13.900972      -42.940632       -9.641666
 H         -17.460270      -41.269897       -9.334063
 H         -17.598124      -42.824917       -8.250458
 H         -15.204549      -42.960892      -11.866207
 H         -15.982944      -41.442535      -11.377994
 H         -17.387367      -43.379524      -10.659907
 H         -16.137629      -44.000874       -9.663330
