20
 generated by VMD
 C         -22.024952      -55.149849      -17.382248
 N         -22.352343      -55.420959      -18.437172
 H         -21.066715      -56.351894      -13.991705
 H         -21.810215      -55.256401      -16.283884
 C         -21.040375      -57.414711      -14.164945
 C         -20.921679      -58.317078      -12.902110
 C         -20.029125      -57.853207      -15.296696
 C         -20.867758      -59.850372      -13.113866
 C         -19.962465      -59.441505      -15.457208
 C         -19.737392      -60.138737      -14.104066
 H         -21.791798      -58.101261      -12.267532
 H         -20.015156      -57.953945      -12.287442
 H         -20.250467      -57.509144      -16.316530
 H         -19.111050      -57.456921      -14.985277
 H         -21.813496      -60.123661      -13.529668
 H         -20.662510      -60.368698      -12.176321
 H         -19.154539      -59.596165      -16.153805
 H         -20.897520      -59.766781      -15.920974
 H         -19.677364      -61.208912      -14.240921
 H         -18.689964      -59.827568      -13.810587
