20
 generated by VMD
 C         -60.143681     -156.549377      -55.560772
 N         -60.865623     -155.705093      -56.032581
 H         -59.784889     -157.577164      -52.875923
 H         -59.527809     -157.291397      -54.966457
 C         -58.750252     -157.936279      -52.861301
 C         -57.725658     -156.842850      -52.675755
 C         -58.286457     -159.289108      -52.244308
 C         -57.377110     -156.757401      -51.203407
 C         -57.998100     -159.143463      -50.700375
 C         -56.928692     -158.081497      -50.577663
 H         -58.183678     -155.933258      -52.839329
 H         -56.793476     -156.992065      -53.198574
 H         -58.905045     -160.116287      -52.490952
 H         -57.336712     -159.457230      -52.724476
 H         -58.119389     -156.219589      -50.566887
 H         -56.640919     -156.017700      -51.222813
 H         -57.809113     -160.059860      -50.197880
 H         -58.820190     -158.804749      -50.056973
 H         -56.678360     -157.905869      -49.430489
 H         -56.002068     -158.459274      -50.857895
