20
 generated by VMD
 C         -56.222015     -150.150223      -46.891060
 N         -57.053036     -150.387314      -46.134506
 H         -53.653008     -148.052216      -47.524128
 H         -55.415283     -149.868530      -47.517448
 C         -53.860722     -147.517654      -48.488720
 C         -53.103844     -148.011841      -49.754086
 C         -54.409195     -146.169891      -48.578983
 C         -53.893211     -147.746277      -51.064735
 C         -55.368885     -146.214127      -49.819199
 C         -54.686340     -146.499039      -51.093178
 H         -52.897980     -149.062515      -49.613091
 H         -52.014935     -147.534775      -49.869858
 H         -54.987831     -145.789520      -47.724335
 H         -53.601597     -145.313339      -48.739712
 H         -54.342258     -148.673676      -51.309593
 H         -53.120014     -147.591690      -51.837959
 H         -55.764935     -145.156036      -50.055687
 H         -56.054424     -146.948792      -49.584763
 H         -55.333923     -146.588516      -51.962666
 H         -54.019909     -145.604645      -51.299274
