20
 generated by VMD
 C         -24.769691      -70.115044      -16.387846
 N         -24.740799      -70.781128      -15.428192
 H         -23.560514      -67.778175      -19.016676
 H         -24.583517      -69.510338      -17.203054
 C         -24.325481      -68.374748      -19.552982
 C         -23.733767      -68.890388      -20.902443
 C         -25.757191      -67.998367      -19.553360
 C         -24.721664      -70.045837      -21.349321
 C         -26.690599      -69.064125      -20.148182
 C         -26.340714      -69.661903      -21.450485
 H         -22.754730      -69.286293      -20.750753
 H         -23.787460      -68.085808      -21.692106
 H         -26.185701      -67.578995      -18.670757
 H         -25.826481      -67.104897      -20.098948
 H         -24.744114      -70.936127      -20.688614
 H         -24.413610      -70.529160      -22.292246
 H         -27.639666      -68.480438      -20.160177
 H         -26.809763      -69.882172      -19.356436
 H         -26.900961      -70.576057      -21.457180
 H         -26.490313      -69.092308      -22.330189
