20
 generated by VMD
 C         -59.811867     -152.122681      -50.531471
 N         -59.098125     -152.886520      -50.056812
 H         -56.553478     -151.266296      -48.502373
 H         -60.603413     -151.461044      -50.927753
 C         -55.853172     -150.802658      -49.214527
 C         -54.998634     -151.889099      -49.743359
 C         -55.342285     -149.420868      -49.174828
 C         -54.345737     -151.425385      -51.003574
 C         -54.786335     -148.977982      -50.569927
 C         -53.891033     -150.070236      -51.171646
 H         -55.543087     -152.835739      -49.868076
 H         -54.256138     -152.111725      -48.864208
 H         -56.126026     -148.646286      -48.975861
 H         -54.598759     -149.271225      -48.364258
 H         -55.111881     -151.657425      -51.788769
 H         -53.514233     -152.065445      -51.284237
 H         -54.048473     -148.149765      -50.522167
 H         -55.609016     -148.787872      -51.257210
 H         -53.713497     -149.772217      -52.257805
 H         -52.978912     -149.914337      -50.712212
