20
 generated by VMD
 C         -53.481499     -147.657272      -45.513565
 N         -54.498180     -147.740417      -44.892845
 H         -55.008171     -147.808289      -48.815231
 H         -52.535080     -147.616714      -46.008602
 C         -54.491951     -146.883881      -48.909382
 C         -53.238548     -146.617462      -49.659367
 C         -54.980644     -145.642761      -48.085140
 C         -53.352573     -145.361465      -50.531422
 C         -55.134327     -144.382401      -49.029499
 C         -53.935246     -144.143723      -49.888271
 H         -52.962070     -147.410431      -50.360397
 H         -52.391121     -146.545868      -48.923576
 H         -55.905945     -145.839508      -47.570396
 H         -54.233326     -145.307266      -47.333652
 H         -53.817585     -145.479660      -51.522045
 H         -52.357162     -145.086716      -50.869114
 H         -55.423859     -143.362244      -48.426846
 H         -55.944061     -144.578140      -49.710499
 H         -54.034061     -143.177429      -50.414055
 H         -53.168827     -143.904312      -49.108215
