20
 generated by VMD
 C         -29.448689      -89.362015      -26.015018
 N         -29.533182      -88.676407      -25.082438
 H         -31.853088      -90.828270      -27.788872
 H         -29.353092      -89.845200      -26.918339
 C         -32.469086      -90.025536      -27.427818
 C         -33.261868      -90.203476      -26.168812
 C         -32.927975      -89.279930      -28.554808
 C         -34.156883      -88.963120      -25.968641
 C         -33.945404      -88.125580      -28.275120
 C         -34.988857      -88.532639      -27.189291
 H         -32.577442      -90.328140      -25.256290
 H         -34.019138      -91.060944      -26.241112
 H         -32.229389      -88.816422      -29.229650
 H         -33.535194      -89.914383      -29.231926
 H         -33.546471      -88.108063      -25.666790
 H         -34.817547      -89.011497      -25.054825
 H         -34.295856      -87.812874      -29.328787
 H         -33.439491      -87.182808      -27.905272
 H         -35.733276      -87.703743      -27.078760
 H         -35.379005      -89.475365      -27.673021
