20
 generated by VMD
 C         -57.245644     -163.991058      -56.698437
 N         -57.257504     -162.943878      -57.260330
 H         -59.758423     -164.798660      -54.531570
 H         -57.073933     -164.949875      -56.203640
 C         -60.785793     -164.897324      -54.618980
 C         -61.740589     -165.335022      -53.560429
 C         -61.421936     -164.460571      -55.918217
 C         -63.103931     -164.560455      -53.444775
 C         -62.870029     -163.821533      -55.770931
 C         -63.708038     -164.619614      -54.824291
 H         -61.169842     -165.328659      -52.550579
 H         -61.849827     -166.469696      -53.689011
 H         -60.760452     -163.636017      -56.325283
 H         -61.533936     -165.182632      -56.756550
 H         -62.836205     -163.516586      -53.161442
 H         -63.748898     -165.106201      -52.648037
 H         -63.312569     -163.734238      -56.774673
 H         -62.782490     -162.590332      -55.449284
 H         -64.683990     -164.201767      -54.801624
 H         -63.706436     -165.615128      -55.151962
