20
 generated by VMD
 C         -44.710693     -122.427223      -36.053421
 N         -44.291080     -122.053787      -35.068813
 H         -45.226665     -122.811333      -39.567078
 H         -45.161373     -122.653908      -36.962223
 C         -44.933830     -121.776413      -39.484428
 C         -43.538540     -121.307831      -39.611523
 C         -46.067539     -120.737373      -39.456589
 C         -43.207039     -120.031036      -40.285732
 C         -45.739082     -119.510582      -40.286819
 C         -44.325630     -118.946907      -40.097454
 H         -43.040627     -122.094231      -40.059380
 H         -43.204510     -121.222450      -38.572258
 H         -46.983009     -121.257286      -39.884274
 H         -46.421150     -120.270401      -38.534023
 H         -43.063419     -120.340393      -41.371498
 H         -42.245716     -119.642807      -40.057327
 H         -46.301125     -118.665207      -39.919800
 H         -45.800144     -119.609589      -41.282177
 H         -44.146896     -117.919228      -40.601757
 H         -44.314175     -118.736931      -38.950085
