20
 generated by VMD
 C         -48.130527     -136.279083      -46.047058
 N         -47.007610     -136.088196      -46.192772
 H         -51.477093     -135.199234      -45.800129
 H         -49.177822     -136.472137      -46.092972
 C         -51.517643     -136.201691      -45.357079
 C         -52.292316     -137.366592      -46.020203
 C         -51.584396     -136.107300      -43.918293
 C         -51.917503     -138.693588      -45.366337
 C         -51.315372     -137.436111      -43.168926
 C         -52.015621     -138.589539      -43.824322
 H         -52.023266     -137.536270      -47.015427
 H         -53.405369     -137.191360      -46.031914
 H         -51.054317     -135.275284      -43.431320
 H         -52.676037     -135.899445      -43.726250
 H         -50.959728     -139.071533      -45.683956
 H         -52.659840     -139.341690      -45.781048
 H         -51.632435     -137.349258      -42.183094
 H         -50.212269     -137.594330      -43.134377
 H         -51.741089     -139.646362      -43.400066
 H         -53.102905     -138.653259      -43.499016
