20
 generated by VMD
 C          -2.028624      -14.307296        1.950119
 N          -1.607678      -15.308896        2.215211
 H          -3.895180      -16.414204        0.735234
 H          -4.344399      -17.093273       -0.812905
 C          -4.763411      -16.805862        0.194320
 C          -5.750405      -15.684847       -0.094691
 C          -5.376489      -18.056513        0.810829
 C          -7.115761      -16.100679       -0.640688
 C          -6.678069      -18.489910        0.108218
 C          -7.672275      -17.277039        0.180057
 H          -5.339470      -14.963352       -0.814106
 H          -5.925172      -15.081178        0.828073
 H          -4.614833      -18.960733        0.882929
 H          -5.665272      -17.856792        1.944161
 H          -6.951577      -16.387743       -1.669173
 H          -7.783496      -15.288373       -0.579739
 H          -7.145526      -19.294456        0.699445
 H          -6.516205      -18.798672       -0.902168
 H          -8.610512      -17.641550       -0.311038
 H          -7.880076      -16.985752        1.255879
