20
 generated by VMD
 C         -10.639581      -33.568237       -8.762970
 N         -11.089142      -32.719704       -9.335960
 H         -11.796639      -36.954113       -8.207444
 H         -12.018977      -36.032841       -6.702564
 C         -12.385138      -36.942154       -7.257394
 C         -11.926075      -38.187576       -6.465523
 C         -13.878728      -36.922535       -7.511676
 C         -12.867017      -38.494049       -5.214486
 C         -14.742516      -37.215664       -6.300525
 C         -14.330147      -38.459221       -5.516661
 H         -10.890747      -38.076805       -6.121350
 H         -11.943650      -39.077606       -7.059772
 H         -14.144653      -35.962975       -7.951363
 H         -14.087934      -37.628677       -8.361727
 H         -12.635075      -37.679554       -4.561069
 H         -12.603327      -39.428642       -4.735651
 H         -15.766658      -37.315655       -6.573447
 H         -14.700957      -36.288803       -5.589918
 H         -14.962698      -38.588661       -4.599082
 H         -14.558875      -39.248611       -6.217427
