20
 generated by VMD
 C         -42.041828     -101.492508      -33.143169
 N         -41.162514     -101.668724      -33.873230
 H         -38.729614     -103.570625      -32.781597
 H         -42.775166     -101.529190      -32.412407
 C         -37.910896     -103.463135      -32.092384
 C         -36.662361     -103.421318      -33.031231
 C         -37.663033     -103.920479      -30.769146
 C         -35.586449     -102.605553      -32.397541
 C         -36.496670     -103.185501      -30.143459
 C         -35.254452     -103.119667      -30.978064
 H         -37.003201     -103.210403      -34.047356
 H         -36.370480     -104.487068      -33.053654
 H         -38.648232     -103.584511      -30.254086
 H         -37.720081     -104.970009      -30.818344
 H         -35.824966     -101.564926      -32.371410
 H         -34.711365     -102.686272      -33.025074
 H         -36.246433     -103.729317      -29.250366
 H         -36.805302     -102.133400      -29.825928
 H         -34.434036     -102.501137      -30.637859
 H         -34.900005     -104.164818      -30.969788
