20
 generated by VMD
 C         -50.785187     -129.741547      -46.208294
 N         -50.862495     -130.312302      -45.144825
 H         -48.041653     -131.942993      -44.399536
 H         -50.882156     -129.586624      -47.275593
 C         -47.893749     -131.808670      -43.362602
 C         -48.184376     -132.993820      -42.503174
 C         -47.980412     -130.557785      -42.661076
 C         -47.720631     -133.025345      -41.108360
 C         -47.340977     -130.530701      -41.192268
 C         -47.894413     -131.702103      -40.372459
 H         -47.801987     -133.857895      -43.122135
 H         -49.198574     -133.161133      -42.409966
 H         -47.560787     -129.871231      -43.291363
 H         -49.048882     -130.346039      -42.476665
 H         -46.660248     -133.215515      -40.981583
 H         -48.244980     -133.721848      -40.449959
 H         -47.687870     -129.479630      -40.768612
 H         -46.288128     -130.503799      -41.363327
 H         -47.585926     -131.735352      -39.348347
 H         -49.020958     -131.665802      -40.374184
