20
 generated by VMD
 C         -49.466164     -132.987320      -47.110023
 N         -49.683041     -131.900543      -47.016510
 H         -47.744095     -134.241165      -44.280262
 H         -49.464657     -133.982986      -47.411331
 C         -48.654457     -134.585739      -43.732544
 C         -49.134544     -136.006241      -43.935955
 C         -49.519993     -133.634720      -43.118855
 C         -49.976330     -136.509644      -42.781399
 C         -50.385433     -134.234512      -41.907772
 C         -51.060818     -135.538742      -42.292305
 H         -48.357315     -136.654144      -44.139130
 H         -49.813652     -135.950546      -44.824726
 H         -48.880558     -132.944183      -42.540695
 H         -50.155819     -132.965652      -43.867748
 H         -49.344913     -136.787659      -41.912979
 H         -50.588490     -137.428711      -42.945343
 H         -51.002071     -133.366623      -41.676239
 H         -49.817142     -134.445419      -41.048180
 H         -51.497280     -135.872681      -41.411594
 H         -51.843571     -135.278275      -43.059319
