20
 generated by VMD
 C         -28.496128      -74.085030      -18.685825
 N         -29.364037      -73.530212      -18.134287
 H         -25.906464      -72.738617      -18.948690
 H         -27.481846      -74.650108      -18.918102
 C         -25.558353      -72.339081      -19.939484
 C         -24.780994      -73.342506      -20.684666
 C         -25.748732      -70.939850      -20.459574
 C         -25.496414      -73.384399      -22.031221
 C         -26.244026      -71.048973      -21.947880
 C         -25.441378      -72.117928      -22.728115
 H         -24.774656      -74.259705      -20.234585
 H         -23.778315      -72.950600      -20.907043
 H         -26.512806      -70.439140      -19.779470
 H         -24.841995      -70.382240      -20.454945
 H         -26.514433      -73.773170      -21.894497
 H         -24.913336      -74.116890      -22.586132
 H         -26.342272      -70.112778      -22.439455
 H         -27.287464      -71.401527      -21.990643
 H         -25.686563      -72.370689      -23.728762
 H         -24.415327      -71.696350      -22.794426
