20
 generated by VMD
 C         -49.212162     -126.925072      -39.870853
 N         -50.091064     -127.198761      -39.181004
 H         -46.731773     -127.046425      -42.718750
 H         -48.587475     -126.717026      -40.737476
 C         -46.227333     -126.450417      -41.883842
 C         -45.325638     -126.850838      -40.839779
 C         -46.670811     -124.999992      -41.790436
 C         -44.165699     -125.812592      -40.398510
 C         -45.592773     -123.951050      -41.422997
 C         -44.755638     -124.393806      -40.193382
 H         -44.959488     -127.857826      -41.105286
 H         -45.778984     -127.081825      -39.959217
 H         -47.253754     -124.802399      -42.670547
 H         -47.603428     -124.948471      -41.042973
 H         -43.268402     -125.908867      -41.084976
 H         -43.779690     -126.137093      -39.384296
 H         -46.173103     -123.018814      -41.291862
 H         -45.066814     -123.756454      -42.352947
 H         -44.039043     -123.667686      -39.928112
 H         -45.547794     -124.391960      -39.423691
