20
 generated by VMD
 C         -38.413139     -108.008316      -36.794937
 N         -38.176922     -108.694107      -37.730797
 H         -41.109379     -108.885490      -35.534000
 H         -38.843876     -107.486786      -35.974998
 C         -41.182926     -109.617203      -34.824097
 C         -40.465420     -110.991135      -35.326038
 C         -42.508591     -109.888092      -34.123352
 C         -40.262440     -111.798836      -33.960518
 C         -42.151985     -110.678505      -32.832047
 C         -41.463371     -112.003723      -33.171368
 H         -39.469555     -110.708656      -35.704262
 H         -41.035271     -111.581970      -36.021030
 H         -43.005714     -108.972321      -33.804054
 H         -43.335632     -110.361275      -34.770905
 H         -39.553249     -111.213051      -33.281189
 H         -39.768047     -112.717155      -34.126968
 H         -42.899361     -110.811493      -32.092140
 H         -41.380268     -110.077423      -32.258701
 H         -41.192860     -112.386139      -32.244255
 H         -42.233028     -112.680374      -33.650391
