20
 generated by VMD
 C         -49.906960     -131.918137      -46.685627
 N         -50.016575     -132.569916      -47.572716
 H         -48.088036     -132.176834      -44.043503
 H         -49.849483     -131.693985      -45.665707
 C         -48.705746     -132.826782      -43.443958
 C         -49.547451     -134.013626      -43.897099
 C         -48.915764     -132.433487      -41.989983
 C         -49.421112     -135.186981      -42.857952
 C         -48.792461     -133.599670      -41.066330
 C         -49.660286     -134.793686      -41.407890
 H         -49.262184     -134.227005      -44.974064
 H         -50.640968     -133.664536      -43.920162
 H         -48.093338     -131.714813      -41.865471
 H         -49.845001     -132.031036      -41.827362
 H         -48.431377     -135.560760      -42.974072
 H         -49.987022     -136.002197      -43.241196
 H         -49.044182     -133.351212      -40.029362
 H         -47.629684     -133.798172      -41.018330
 H         -49.406479     -135.776413      -40.847229
 H         -50.679062     -134.481918      -41.462482
