20
 generated by VMD
 C         -67.627098     -191.727036      -67.203712
 N         -66.954826     -192.560486      -66.722237
 H         -70.605690     -189.255920      -66.233047
 H         -68.359772     -191.126526      -67.830124
 C         -71.217545     -189.750168      -65.526314
 C         -71.680641     -191.199158      -65.811989
 C         -71.384399     -189.233459      -64.089058
 C         -73.190628     -191.168945      -65.334328
 C         -72.761734     -189.602158      -63.477562
 C         -73.244820     -191.006958      -63.880692
 H         -71.097488     -191.852036      -65.097977
 H         -71.664764     -191.417343      -66.829819
 H         -70.637260     -189.797729      -63.471298
 H         -71.274513     -188.192780      -64.145592
 H         -73.635483     -192.218796      -65.563416
 H         -73.894852     -190.550888      -65.938156
 H         -73.503296     -188.834244      -63.886917
 H         -72.817001     -189.275696      -62.370075
 H         -72.493019     -191.727600      -63.306171
 H         -74.318306     -191.141724      -63.685036
