20
 generated by VMD
 C         -69.289360     -180.349854      -59.750469
 N         -68.774124     -181.153473      -60.431976
 H         -67.073463     -177.662292      -59.797546
 H         -69.838089     -179.668335      -59.112103
 C         -66.363861     -176.952927      -59.892738
 C         -65.952538     -176.736252      -61.337109
 C         -65.315079     -176.884888      -58.845329
 C         -64.876717     -175.759506      -61.635822
 C         -64.090523     -176.136322      -59.202835
 C         -63.723194     -176.104050      -60.626297
 H         -66.864662     -176.539139      -61.925644
 H         -65.672348     -177.710327      -61.724098
 H         -65.847916     -176.458435      -57.956432
 H         -65.131752     -177.911591      -58.673172
 H         -65.362999     -174.690903      -61.433540
 H         -64.477844     -175.889984      -62.669472
 H         -63.291092     -176.483582      -58.557972
 H         -64.494011     -175.159882      -58.951767
 H         -63.039467     -175.326065      -60.920647
 H         -63.252472     -176.978973      -60.940998
