20
 generated by VMD
 C         -11.199833      -38.465473       -7.525306
 N         -11.721381      -37.671631       -6.927733
 H         -12.654237      -41.818039       -8.961028
 H         -13.444896      -40.614742       -7.958948
 C         -13.608538      -41.336128       -8.696220
 C         -14.531540      -42.467281       -8.170275
 C         -14.219237      -40.598049       -9.915764
 C         -15.888537      -41.778683       -7.757627
 C         -15.695935      -40.174057       -9.688535
 C         -16.592382      -41.247074       -9.041979
 H         -14.108108      -42.882225       -7.254011
 H         -14.738439      -43.239311       -8.924880
 H         -13.593018      -39.727615      -10.206452
 H         -14.261594      -41.359730      -10.750630
 H         -15.750654      -40.967247       -7.052093
 H         -16.484922      -42.577732       -7.271890
 H         -16.068922      -39.811062      -10.634609
 H         -15.777112      -39.255173       -9.045502
 H         -17.557543      -40.878277       -8.781736
 H         -16.811905      -42.074455       -9.725309
