20
 generated by VMD
 C         -27.715916      -81.151855      -27.517019
 N         -28.842863      -81.428314      -27.547821
 H         -30.135912      -83.112976      -25.258892
 H         -26.661638      -80.919243      -27.255545
 C         -30.538002      -83.994682      -24.723700
 C         -30.364761      -84.083084      -23.201775
 C         -31.198076      -85.068245      -25.551344
 C         -31.714518      -84.501823      -22.657757
 C         -32.491043      -85.465355      -24.780628
 C         -32.262951      -85.681335      -23.337923
 H         -29.916243      -83.091774      -22.862940
 H         -29.528818      -84.765709      -23.019577
 H         -31.612572      -84.829430      -26.483816
 H         -30.456717      -85.846611      -25.815460
 H         -32.390854      -83.638901      -22.899952
 H         -31.680084      -84.735283      -21.588446
 H         -32.966785      -86.394035      -25.057549
 H         -33.217545      -84.642998      -24.931583
 H         -33.161667      -85.842888      -22.785988
 H         -31.582962      -86.506317      -23.033537
