20
 generated by VMD
 C         -40.190659      -99.606491      -28.943462
 N         -39.440701     -100.105835      -28.214960
 H         -37.438492      -98.469368      -30.501719
 H         -41.021683      -99.362747      -29.611334
 C         -36.445488      -98.543007      -30.777412
 C         -35.786613      -98.968857      -32.068913
 C         -35.453686      -98.430611      -29.679457
 C         -34.661495      -98.045883      -32.356365
 C         -34.289078      -97.562653      -29.970726
 C         -33.623623      -97.772827      -31.315151
 H         -36.622738      -98.849518      -32.851780
 H         -35.515949      -99.991867      -31.972591
 H         -36.098869      -97.907433      -28.860519
 H         -35.103230      -99.411278      -29.356857
 H         -35.093433      -97.042160      -32.412613
 H         -34.216831      -98.377464      -33.388977
 H         -33.585403      -97.619507      -29.105646
 H         -34.477657      -96.540848      -30.041447
 H         -33.145008      -96.856949      -31.577553
 H         -32.887165      -98.650627      -31.318125
