20
 generated by VMD
 C         -29.837248      -79.896729      -26.289024
 N         -29.486589      -80.017654      -27.417225
 H         -28.232836      -82.766228      -24.969969
 H         -30.275990      -79.768204      -25.378393
 C         -29.186090      -82.937866      -24.419044
 C         -29.214214      -82.467842      -23.038202
 C         -29.984762      -84.099770      -24.825603
 C         -30.591196      -82.487495      -22.388670
 C         -31.388823      -84.142555      -24.133770
 C         -31.227144      -83.973022      -22.561777
 H         -28.599518      -81.557404      -23.025444
 H         -28.582621      -83.213348      -22.548544
 H         -30.013460      -84.094841      -25.898691
 H         -29.616461      -85.060471      -24.435354
 H         -31.216972      -81.736359      -22.938799
 H         -30.433311      -82.292114      -21.323261
 H         -31.833918      -85.110001      -24.308512
 H         -32.078663      -83.282936      -24.459932
 H         -32.168228      -83.985443      -22.039003
 H         -30.611847      -84.599030      -21.993580
