20
 generated by VMD
 C         -70.094490     -181.365448      -62.841751
 N         -71.145294     -181.068375      -63.256050
 H         -67.576584     -181.680862      -60.618145
 H         -69.115082     -181.674515      -62.459270
 C         -66.883698     -180.931595      -60.833294
 C         -65.453087     -181.191742      -60.573544
 C         -67.285088     -179.566132      -60.585426
 C         -64.365921     -180.046066      -60.633083
 C         -66.278030     -178.391556      -60.962608
 C         -64.953484     -178.661987      -60.215981
 H         -65.245705     -182.118881      -61.156902
 H         -65.388191     -181.631210      -59.516937
 H         -68.198265     -179.330292      -61.263794
 H         -67.651573     -179.463943      -59.501194
 H         -64.034790     -179.817642      -61.688320
 H         -63.422382     -180.208466      -59.982269
 H         -66.751373     -177.383926      -60.911991
 H         -66.049095     -178.427094      -62.036350
 H         -64.378532     -177.780869      -60.668121
 H         -65.020088     -178.520782      -59.093952
