20
 generated by VMD
 C         -59.019634     -151.954697      -49.031700
 N         -58.966217     -152.224716      -50.198715
 H         -56.614628     -150.685837      -48.655952
 H         -59.220200     -151.697800      -48.018642
 C         -55.626282     -150.336777      -49.088455
 C         -54.729561     -151.323547      -49.734764
 C         -55.357067     -148.839157      -49.220474
 C         -54.204556     -150.807129      -51.016788
 C         -54.785412     -148.393143      -50.542355
 C         -53.773186     -149.386887      -50.977638
 H         -55.374107     -152.219009      -49.944695
 H         -54.041035     -151.527496      -48.991238
 H         -56.191059     -148.173721      -49.150410
 H         -54.554008     -148.530914      -48.484787
 H         -54.830105     -151.140320      -51.824493
 H         -53.235191     -151.357574      -51.210918
 H         -54.448147     -147.284698      -50.661934
 H         -55.524036     -148.500275      -51.238190
 H         -53.430565     -149.097534      -51.952995
 H         -52.914803     -149.411743      -50.270054
