20
 generated by VMD
 C         -13.512835      -29.532606       -7.345044
 N         -13.519524      -29.127502       -8.388123
 H         -11.448621      -30.223854       -4.710322
 H          -9.969671      -30.307629       -3.705529
 C         -10.642013      -30.863213       -4.320702
 C          -9.858809      -31.393404       -5.487834
 C         -11.263933      -32.057873       -3.576926
 C          -8.737385      -32.363243       -4.961859
 C         -10.190129      -32.961292       -2.911279
 C          -9.362780      -33.501114       -4.013142
 H          -9.468599      -30.505356       -6.051895
 H         -10.479474      -31.927542       -6.147287
 H         -11.923066      -31.679922       -2.797472
 H         -11.836148      -32.698292       -4.225428
 H          -8.153686      -31.687878       -4.355483
 H          -8.122584      -32.795925       -5.774639
 H         -10.694625      -33.637119       -2.279698
 H          -9.531805      -32.285294       -2.260691
 H          -8.528143      -33.996017       -3.560732
 H          -9.964703      -34.083138       -4.724447
