20
 generated by VMD
 C         -24.576582      -70.022217      -16.476397
 N         -24.551458      -70.549995      -15.416750
 H         -23.638878      -67.305786      -19.087910
 H         -24.339874      -69.564957      -17.353426
 C         -24.310417      -67.899605      -19.637043
 C         -23.756893      -68.737091      -20.803497
 C         -25.748354      -67.881165      -19.555502
 C         -24.754795      -69.886635      -21.190908
 C         -26.627777      -69.042542      -19.912989
 C         -26.265755      -69.576340      -21.292608
 H         -22.802431      -69.034378      -20.677612
 H         -23.644608      -68.145531      -21.737711
 H         -26.057331      -67.620949      -18.505657
 H         -25.924627      -67.099335      -20.317852
 H         -24.823635      -70.679970      -20.458883
 H         -24.519571      -70.282715      -22.187981
 H         -27.631554      -68.643341      -19.785475
 H         -26.621717      -69.784142      -19.133707
 H         -26.851162      -70.460884      -21.506145
 H         -26.334360      -68.884048      -22.102491
