20
 generated by VMD
 C          -1.741405      -12.985512        0.565070
 N          -1.230265      -13.890607        0.986363
 H          -3.598477      -15.012197        1.744087
 H          -4.492534      -14.616648        0.236141
 C          -4.527053      -15.229321        1.157208
 C          -5.770182      -14.762059        1.948803
 C          -4.471432      -16.743853        0.972076
 C          -7.080589      -15.241554        1.218644
 C          -5.706897      -17.164230        0.192870
 C          -7.005185      -16.746153        0.916623
 H          -5.851211      -13.654149        1.905298
 H          -5.710349      -15.194146        3.000496
 H          -3.619475      -17.032270        0.491623
 H          -4.371047      -17.236950        1.874034
 H          -7.090885      -14.779326        0.230042
 H          -7.990950      -14.973597        1.758525
 H          -5.703472      -18.223223        0.071161
 H          -5.742191      -16.750444       -0.818112
 H          -7.887933      -17.176432        0.400697
 H          -6.914696      -17.253471        1.884861
