20
 generated by VMD
 C         -78.708153     -209.116959      -77.035744
 N         -79.696945     -208.622986      -76.779930
 H         -78.130722     -209.020386      -73.114914
 H         -77.842964     -209.759384      -77.411560
 C         -78.158691     -209.767471      -72.283371
 C         -77.044678     -209.921112      -71.483414
 C         -79.072342     -210.952560      -72.365425
 C         -77.261971     -210.587036      -70.120872
 C         -79.408836     -211.552811      -70.950294
 C         -78.161232     -211.822922      -70.166206
 H         -76.727180     -208.867844      -71.273941
 H         -76.282013     -210.510071      -72.056999
 H         -79.943024     -210.519958      -72.813980
 H         -78.747963     -211.832977      -72.976364
 H         -77.859734     -209.807922      -69.565842
 H         -76.281555     -210.845688      -69.651657
 H         -80.015068     -212.452026      -70.964973
 H         -80.100830     -210.734955      -70.627251
 H         -78.313377     -212.197433      -69.169113
 H         -77.736511     -212.638336      -70.714439
