20
 generated by VMD
 C         -70.074478     -182.911438      -65.965004
 N         -71.128593     -183.310440      -65.643829
 H         -67.929482     -182.717926      -63.081486
 H         -69.100594     -182.465668      -66.187836
 C         -67.503830     -182.431122      -62.130589
 C         -67.639618     -183.348587      -61.003529
 C         -67.022369     -181.106186      -61.910522
 C         -66.658157     -183.128128      -59.913948
 C         -66.200294     -180.777786      -60.625095
 C         -66.748955     -181.605804      -59.429863
 H         -67.488762     -184.381424      -61.349735
 H         -68.753769     -183.396011      -60.668465
 H         -66.422981     -180.718155      -62.698242
 H         -68.026283     -180.461182      -61.801094
 H         -65.706413     -183.376389      -60.256050
 H         -66.645729     -183.683029      -58.973473
 H         -66.174919     -179.701080      -60.370255
 H         -65.180023     -181.054565      -60.968204
 H         -66.075500     -181.412354      -58.600822
 H         -67.847275     -181.397430      -59.195198
