20
 generated by VMD
 C         -13.112112      -28.622772       -5.468220
 N         -12.761884      -27.551538       -5.497732
 H         -11.274300      -31.063015       -3.181492
 H         -11.052892      -29.377342       -4.083066
 C         -10.561292      -30.257378       -3.624103
 C          -9.803345      -30.956150       -4.762490
 C          -9.606978      -29.766151       -2.511853
 C          -8.646381      -30.102438       -5.269130
 C          -8.628927      -28.754471       -3.143161
 C          -7.775467      -29.405407       -4.316350
 H         -10.544068      -31.197443       -5.493203
 H          -9.277942      -31.910414       -4.354827
 H         -10.236144      -29.275990       -1.775660
 H          -9.125611      -30.602449       -2.062315
 H          -9.127576      -29.286755       -5.912908
 H          -7.970376      -30.767855       -5.862861
 H          -7.931556      -28.373356       -2.457849
 H          -9.172015      -27.904083       -3.623224
 H          -7.192838      -28.621122       -4.874059
 H          -7.158773      -30.077307       -3.786533
