20
 generated by VMD
 C         -49.991474     -129.134811      -43.002678
 N         -50.674473     -128.466827      -43.670803
 H         -48.585854     -127.938866      -39.601841
 H         -49.604603     -129.726410      -42.180302
 C         -47.771706     -128.035385      -40.299774
 C         -46.585995     -129.056976      -39.960636
 C         -47.442345     -126.805435      -41.080757
 C         -45.516930     -129.137543      -41.045326
 C         -46.225800     -126.989769      -42.138306
 C         -45.111935     -127.812218      -41.677135
 H         -46.951244     -130.136078      -39.844341
 H         -46.292084     -128.818237      -38.956905
 H         -48.239052     -126.328575      -41.582310
 H         -47.039650     -126.050758      -40.442207
 H         -45.942432     -129.819168      -41.810486
 H         -44.678097     -129.527252      -40.487228
 H         -45.792767     -126.043304      -42.361107
 H         -46.710594     -127.388916      -42.982449
 H         -44.477005     -127.968872      -42.558308
 H         -44.457256     -127.304779      -40.871140
