20
 generated by VMD
 C          -6.309325      -22.364456        1.918322
 N          -6.369450      -22.948326        2.853950
 H          -5.538082      -19.570066       -0.444475
 H          -6.946288      -20.612961       -0.152374
 C          -6.323902      -20.173817       -1.027012
 C          -5.759943      -21.304205       -1.939161
 C          -7.152218      -19.187607       -1.847926
 C          -6.930506      -22.018278       -2.687819
 C          -8.364634      -19.813904       -2.568000
 C          -7.852748      -20.988695       -3.429831
 H          -5.231594      -22.045292       -1.317397
 H          -5.075019      -20.874870       -2.612960
 H          -7.542583      -18.423828       -1.181742
 H          -6.586678      -18.778933       -2.639349
 H          -7.502624      -22.578773       -1.949568
 H          -6.542387      -22.741022       -3.404307
 H          -8.920783      -19.060797       -3.116007
 H          -9.080500      -20.306705       -1.902919
 H          -8.725488      -21.420147       -3.964322
 H          -7.173025      -20.509340       -4.154052
