20
 generated by VMD
 C         -60.783493     -156.247147      -54.764454
 N         -60.201496     -155.517899      -55.378647
 H         -59.662472     -157.088593      -51.549271
 H         -61.267559     -156.872040      -54.056179
 C         -58.690342     -156.927872      -51.906452
 C         -58.022537     -155.590881      -51.911198
 C         -57.852043     -158.111023      -52.079033
 C         -56.849518     -155.621872      -50.835972
 C         -56.830914     -158.108994      -51.047264
 C         -56.042595     -156.825302      -51.048634
 H         -58.706699     -154.782898      -51.516121
 H         -57.716141     -155.243423      -52.920059
 H         -58.439201     -158.996292      -52.089653
 H         -57.518044     -158.083862      -53.092037
 H         -57.194664     -155.571762      -49.726749
 H         -56.424274     -154.614227      -50.901360
 H         -56.364254     -159.095383      -51.152496
 H         -57.234730     -158.171875      -50.074360
 H         -55.344173     -156.881073      -50.133846
 H         -55.377007     -156.744720      -51.853806
