20
 generated by VMD
 C         -11.805505      -42.473850       -7.137833
 N         -12.294071      -42.189613       -6.192812
 H         -14.758395      -43.320786       -8.324086
 H         -14.901820      -41.956463       -9.475762
 C         -15.278193      -43.003033       -9.262098
 C         -16.795523      -42.963478       -8.935144
 C         -14.858115      -44.011330      -10.323094
 C         -17.405266      -42.519810      -10.228756
 C         -15.573266      -43.670197      -11.640048
 C         -17.062687      -43.376850      -11.451613
 H         -17.044361      -42.310913       -8.081656
 H         -17.176188      -43.929432       -8.705501
 H         -13.741190      -44.133804      -10.528407
 H         -15.076333      -45.052315       -9.987444
 H         -17.156813      -41.467804      -10.383162
 H         -18.495985      -42.449821      -10.115544
 H         -15.452879      -44.414772      -12.453115
 H         -15.087497      -42.762974      -11.919995
 H         -17.372684      -42.849728      -12.403298
 H         -17.672108      -44.291782      -11.362364
