20
 generated by VMD
 C         -79.960197     -205.424042      -71.583076
 N         -79.943695     -206.605072      -71.561516
 H         -77.293503     -203.410355      -71.072372
 H         -79.840012     -204.381073      -71.895256
 C         -76.284546     -203.734131      -70.740997
 C         -75.255661     -202.683350      -70.496338
 C         -76.128815     -205.134705      -70.088440
 C         -73.876167     -203.171082      -70.305489
 C         -75.066299     -205.065445      -69.089943
 C         -73.797096     -204.632339      -69.803047
 H         -75.567169     -202.148651      -69.537262
 H         -75.224983     -201.904419      -71.217438
 H         -77.098328     -205.304520      -69.593758
 H         -75.836708     -205.976730      -70.677383
 H         -73.229424     -202.571365      -69.570610
 H         -73.285912     -203.166794      -71.244987
 H         -74.886642     -206.130188      -68.689018
 H         -75.253441     -204.406479      -68.301643
 H         -73.118378     -204.716965      -68.939064
 H         -73.446709     -205.370834      -70.504303
