20
 generated by VMD
 C         -70.678375     -181.376617      -64.116180
 N         -70.525406     -182.304733      -63.488987
 H         -68.366379     -181.164734      -61.106503
 H         -70.833313     -180.548477      -64.780136
 C         -67.329903     -180.841827      -60.847237
 C         -66.206985     -181.634735      -60.316135
 C         -67.305244     -179.378967      -60.512672
 C         -64.880302     -181.033981      -60.895401
 C         -65.967186     -178.719681      -60.792103
 C         -64.897423     -179.637039      -60.316700
 H         -66.381927     -182.654709      -60.802094
 H         -66.422287     -181.781708      -59.233986
 H         -68.058792     -178.751190      -61.030930
 H         -67.592484     -179.286942      -59.477703
 H         -65.023643     -180.994095      -61.941769
 H         -64.099800     -181.650879      -60.508629
 H         -65.809464     -177.740952      -60.258053
 H         -65.881203     -178.435669      -61.828831
 H         -63.891224     -179.277481      -60.747913
 H         -64.870049     -179.526001      -59.254730
