20
 generated by VMD
 C         -19.373411      -60.622742      -17.836763
 N         -20.064783      -59.672558      -17.843357
 H         -22.781197      -60.027073      -15.975045
 H         -18.744513      -61.361343      -18.063551
 C         -23.124613      -61.035812      -16.016226
 C         -23.386818      -61.684391      -17.412533
 C         -23.554281      -61.712051      -14.812883
 C         -22.551237      -62.971855      -17.301601
 C         -23.092525      -63.176079      -14.955919
 C         -23.275827      -63.865700      -16.262484
 H         -23.152647      -61.008110      -18.210388
 H         -24.401642      -61.958073      -17.624392
 H         -22.993553      -61.216274      -13.929640
 H         -24.662291      -61.702198      -14.604175
 H         -21.452394      -62.861103      -17.140266
 H         -22.554962      -63.490181      -18.313099
 H         -23.597992      -63.799995      -14.205187
 H         -22.009130      -63.049118      -14.840623
 H         -22.804283      -64.826019      -16.257832
 H         -24.269049      -64.027359      -16.640396
