20
 generated by VMD
 C         -10.144516      -36.020252       -8.700785
 N         -10.118627      -34.948772       -9.066386
 H         -13.493657      -36.981850       -6.742370
 H         -14.587713      -37.988934       -5.590963
 C         -13.999861      -37.874043       -6.537802
 C         -13.069763      -39.125874       -6.591001
 C         -15.008111      -37.858570       -7.727638
 C         -13.866353      -40.444187       -6.699968
 C         -15.753240      -39.215714       -8.003022
 C         -14.768026      -40.436707       -7.940756
 H         -12.432012      -39.227242       -5.669632
 H         -12.397861      -38.982841       -7.495313
 H         -15.822891      -37.116585       -7.581516
 H         -14.431602      -37.685593       -8.634544
 H         -14.449778      -40.547363       -5.793599
 H         -13.105324      -41.255226       -6.811226
 H         -16.195234      -39.161209       -9.001543
 H         -16.561945      -39.370617       -7.302169
 H         -15.278388      -41.384476       -8.154221
 H         -14.046862      -40.322582       -8.765548
