20
 generated by VMD
 C         -38.826538     -109.839653      -35.909626
 N         -37.918068     -109.133125      -36.062267
 H         -42.244251     -110.429100      -36.994179
 H         -39.763866     -110.443314      -35.729504
 C         -41.955715     -111.048256      -36.102531
 C         -41.744507     -112.502228      -36.196304
 C         -42.348499     -110.209740      -34.833710
 C         -41.168976     -113.072754      -34.962234
 C         -41.595676     -110.856796      -33.765099
 C         -41.852562     -112.402153      -33.629475
 H         -40.940742     -112.533318      -36.977196
 H         -42.628105     -113.046104      -36.497681
 H         -42.214462     -109.186935      -35.028732
 H         -43.418636     -110.303337      -34.764210
 H         -40.111053     -112.869507      -34.875816
 H         -41.339508     -114.145195      -35.017105
 H         -41.853737     -110.385818      -32.803852
 H         -40.469746     -110.767975      -33.801762
 H         -41.391571     -112.889961      -32.672752
 H         -42.831757     -112.705360      -33.482647
