20
 generated by VMD
 C         -80.357239     -205.544968      -71.914352
 N         -79.788567     -206.594040      -71.804741
 H         -77.132111     -203.655853      -70.608894
 H         -80.871223     -204.631561      -71.871284
 C         -76.347321     -204.273651      -71.072845
 C         -74.993797     -203.602005      -71.280022
 C         -76.214859     -205.756851      -70.663261
 C         -74.308945     -203.600739      -69.831200
 C         -75.479172     -205.810898      -69.313858
 C         -74.168289     -204.971939      -69.209953
 H         -75.230904     -202.600098      -71.682030
 H         -74.491180     -204.123596      -72.070915
 H         -77.275749     -206.162415      -70.568665
 H         -75.872452     -206.240921      -71.606483
 H         -74.930489     -202.963470      -69.184303
 H         -73.287262     -203.173721      -69.993355
 H         -75.111168     -206.880905      -69.169075
 H         -76.122681     -205.614975      -68.463409
 H         -73.954865     -204.862137      -68.109901
 H         -73.322304     -205.373169      -69.728127
