20
 generated by VMD
 C         -28.530264      -82.486786      -26.328518
 N         -27.843107      -82.600067      -27.266333
 H         -31.543734      -83.873245      -26.321077
 H         -29.016764      -82.342850      -25.292198
 C         -31.253471      -84.671959      -25.724075
 C         -30.758625      -84.407066      -24.400993
 C         -31.921684      -85.923378      -26.038021
 C         -31.752689      -84.817924      -23.281193
 C         -32.990322      -86.275513      -25.013144
 C         -32.343395      -86.287926      -23.582041
 H         -30.384251      -83.387543      -24.401714
 H         -29.870821      -85.138222      -24.305370
 H         -32.301361      -86.069412      -27.039591
 H         -31.017830      -86.601013      -25.845629
 H         -32.603111      -84.122086      -23.070957
 H         -31.276176      -84.834824      -22.321775
 H         -33.382919      -87.253250      -25.332762
 H         -33.855080      -85.544495      -25.192669
 H         -33.107628      -86.604218      -22.884939
 H         -31.497450      -87.083603      -23.472612
