20
 generated by VMD
 C         -68.516029     -195.051010      -65.463478
 N         -68.794930     -195.245697      -64.326576
 H         -71.178719     -194.368347      -67.524704
 H         -68.355873     -194.644485      -66.403061
 C         -72.109734     -193.905884      -67.128685
 C         -71.919525     -192.516785      -66.558617
 C         -73.406281     -194.249893      -67.672173
 C         -73.069923     -192.019485      -65.743629
 C         -74.512352     -193.685059      -66.796303
 C         -74.288841     -192.191071      -66.591057
 H         -71.781479     -191.869217      -67.395195
 H         -70.852516     -192.429214      -66.115143
 H         -73.459137     -193.921112      -68.738815
 H         -73.644409     -195.291275      -67.769875
 H         -72.712700     -190.984436      -65.509911
 H         -73.145111     -192.516464      -64.766647
 H         -74.547478     -194.218460      -65.855240
 H         -75.513481     -193.817139      -67.321037
 H         -74.314384     -191.686508      -67.487457
 H         -75.257568     -191.836746      -66.043098
