20
 generated by VMD
 C         -58.132431     -161.859451      -56.251846
 N         -57.150818     -161.999649      -56.919918
 H         -59.833607     -165.233429      -55.077911
 H         -59.078506     -161.738297      -55.724541
 C         -60.523029     -164.328644      -54.887123
 C         -60.445702     -163.942947      -53.465458
 C         -61.741226     -164.549072      -55.665375
 C         -61.581600     -162.989120      -53.010216
 C         -62.661827     -163.493774      -55.206047
 C         -62.805202     -163.384552      -53.725723
 H         -59.493145     -163.502808      -53.152031
 H         -60.670376     -164.862808      -52.881512
 H         -61.614540     -164.269730      -56.658161
 H         -62.102722     -165.614197      -55.555935
 H         -61.269989     -162.007141      -53.451523
 H         -61.713970     -162.971451      -51.958035
 H         -63.657516     -163.698761      -55.569057
 H         -62.381538     -162.433319      -55.602791
 H         -63.584618     -162.541306      -53.548981
 H         -63.242813     -164.324158      -53.277008
