20
 generated by VMD
 C         -77.397186     -202.940231      -68.624283
 N         -77.577942     -203.931503      -67.999786
 H         -75.136772     -201.456726      -67.262848
 H         -77.163872     -202.026566      -69.090759
 C         -74.768829     -201.076385      -68.169762
 C         -75.108932     -199.649506      -68.553123
 C         -73.799820     -201.866318      -69.099808
 C         -74.324051     -199.026382      -69.711685
 C         -73.064362     -201.019287      -70.171494
 C         -73.935081     -200.035477      -70.841393
 H         -75.117104     -199.013565      -67.622414
 H         -76.103981     -199.753067      -68.893150
 H         -73.129868     -202.462906      -68.524521
 H         -74.451996     -202.605499      -69.647438
 H         -73.377838     -198.641113      -69.370422
 H         -74.754631     -198.110840      -70.090263
 H         -72.708527     -201.750763      -70.843956
 H         -72.206070     -200.649078      -69.720360
 H         -73.453888     -199.457062      -71.719307
 H         -74.828232     -200.436005      -71.224251
