20
 generated by VMD
 C         -12.376919      -28.374445       -5.461401
 N         -13.243055      -28.018114       -6.068114
 H         -11.772361      -31.756596       -4.162189
 H         -11.289248      -30.337099       -5.167953
 C         -10.949696      -31.074881       -4.415938
 C          -9.822022      -31.815763       -5.108098
 C         -10.543666      -30.346483       -3.220943
 C          -8.539658      -31.026329       -5.275945
 C          -9.239002      -29.692490       -3.218383
 C          -8.108502      -30.439617       -3.899049
 H         -10.122818      -32.208996       -6.102793
 H          -9.711516      -32.697746       -4.377209
 H         -11.401616      -29.690119       -2.923634
 H         -10.402812      -31.098480       -2.419103
 H          -8.669409      -30.128756       -5.986267
 H          -7.769757      -31.745394       -5.675478
 H          -9.022761      -29.512474       -2.195361
 H          -9.245453      -28.663845       -3.677625
 H          -7.348005      -29.655884       -4.103350
 H          -7.846979      -31.268175       -3.241485
