20
 generated by VMD
 C          -3.213134      -17.521206        2.495291
 N          -3.178655      -18.145250        1.573948
 H          -5.428983      -19.563824        0.921883
 H          -5.436813      -20.457438       -0.654307
 C          -5.886115      -19.584377       -0.104819
 C          -5.469718      -18.259275       -0.685468
 C          -7.427599      -19.741505        0.131562
 C          -6.195452      -18.093134       -1.983421
 C          -8.279556      -19.443220       -1.101280
 C          -7.722946      -18.128862       -1.743803
 H          -4.378561      -18.353733       -0.864402
 H          -5.588078      -17.379766       -0.050251
 H          -7.693814      -20.794031        0.478128
 H          -7.639330      -19.051771        1.045550
 H          -5.873401      -18.924770       -2.654708
 H          -5.909265      -17.136887       -2.490904
 H          -9.330635      -19.293173       -0.793065
 H          -8.289488      -20.245607       -1.808270
 H          -8.302200      -17.929819       -2.644749
 H          -8.032271      -17.286783       -1.071742
