20
 generated by VMD
 C         -20.863319      -52.314667       -9.604778
 N         -21.253441      -52.127579      -10.679493
 H         -19.095530      -49.760429      -11.496015
 H         -20.024052      -52.240318       -8.578312
 C         -18.176016      -49.930328      -12.085992
 C         -17.540451      -51.268887      -12.335602
 C         -17.309250      -48.677216      -12.249815
 C         -16.879297      -51.308552      -13.694324
 C         -16.552351      -48.699135      -13.516549
 C         -15.927287      -50.035236      -13.862846
 H         -18.362873      -52.013287      -12.473796
 H         -16.991657      -51.662773      -11.494228
 H         -17.992573      -47.825432      -12.232154
 H         -16.591213      -48.692486      -11.372144
 H         -17.616030      -51.274857      -14.526490
 H         -16.350641      -52.277153      -13.818447
 H         -15.873194      -47.940800      -13.739240
 H         -17.399593      -48.579296      -14.291862
 H         -15.630141      -49.922310      -14.910173
 H         -15.057223      -50.240669      -13.234769
