20
 generated by VMD
 C         -20.646149      -64.197647      -16.539236
 N         -19.788128      -63.564678      -16.949865
 H         -23.347305      -63.497452      -17.579662
 H         -21.633551      -64.758736      -16.269979
 C         -23.904095      -64.400383      -17.781988
 C         -24.570316      -64.356331      -19.108788
 C         -24.367512      -65.266945      -16.671274
 C         -24.735031      -65.823067      -19.591278
 C         -24.643961      -66.704315      -17.147327
 C         -25.464542      -66.630447      -18.441761
 H         -23.995432      -63.721397      -19.843769
 H         -25.454411      -63.732430      -18.948269
 H         -23.441694      -65.444305      -15.910351
 H         -25.257107      -64.801826      -16.142633
 H         -23.736206      -66.143433      -19.936924
 H         -25.250154      -65.769012      -20.569328
 H         -25.279306      -67.066635      -16.311426
 H         -23.755646      -67.393234      -17.221983
 H         -25.665180      -67.667801      -18.761604
 H         -26.490791      -66.181305      -18.177475
