20
 generated by VMD
 C         -12.604106      -30.172611       -7.771948
 N         -13.625518      -29.726843       -7.755525
 H         -11.351026      -30.237558       -4.930726
 H         -10.404687      -30.576139       -3.638628
 C         -10.758318      -31.070387       -4.482740
 C          -9.679558      -31.512526       -5.406121
 C         -11.719463      -32.198624       -4.006358
 C          -8.860733      -32.662010       -4.842439
 C         -10.876338      -33.284542       -3.412939
 C          -9.793152      -33.815681       -4.357113
 H          -9.134329      -30.647629       -5.686523
 H         -10.191625      -31.990755       -6.304261
 H         -12.505021      -31.799026       -3.366879
 H         -12.224620      -32.636292       -4.859160
 H          -8.291954      -32.238495       -4.001863
 H          -8.190559      -33.055058       -5.607574
 H         -11.547393      -34.139874       -3.108326
 H         -10.277770      -32.964237       -2.554279
 H          -9.238652      -34.619617       -3.885983
 H         -10.266148      -34.219471       -5.213126
