20
 generated by VMD
 C         -49.954639     -131.623688      -46.674404
 N         -50.216007     -131.816055      -47.747791
 H         -48.292683     -131.740494      -43.846096
 H         -49.880684     -131.154297      -45.742016
 C         -49.002163     -132.240448      -43.126839
 C         -49.691643     -133.505814      -43.368732
 C         -48.737076     -131.804092      -41.749119
 C         -48.937981     -134.638916      -42.525478
 C         -47.973484     -132.923050      -41.004524
 C         -48.821835     -134.238602      -41.070484
 H         -49.600471     -133.871307      -44.424519
 H         -50.770184     -133.618805      -43.149548
 H         -48.082287     -130.954041      -41.678082
 H         -49.718670     -131.709717      -41.211761
 H         -47.894516     -134.857376      -42.852222
 H         -49.495972     -135.583221      -42.595886
 H         -47.941017     -132.639709      -39.864353
 H         -46.928925     -132.992126      -41.468102
 H         -48.201958     -134.888168      -40.536766
 H         -49.778549     -134.253479      -40.467865
