20
 generated by VMD
 C         -70.308090     -182.778748      -65.911369
 N         -71.093063     -183.554855      -65.622032
 H         -67.449341     -182.274246      -63.216465
 H         -69.583244     -182.085312      -66.192131
 C         -67.249771     -182.124527      -62.168137
 C         -67.676399     -183.050308      -61.087738
 C         -67.083450     -180.759262      -61.702179
 C         -66.608696     -183.043503      -59.906631
 C         -66.049965     -180.607605      -60.478176
 C         -66.462547     -181.594879      -59.315235
 H         -67.778061     -184.067505      -61.503429
 H         -68.696762     -182.777390      -60.825264
 H         -66.672729     -180.178604      -62.523647
 H         -68.039032     -180.224396      -61.263988
 H         -65.589958     -183.367401      -60.120998
 H         -66.856956     -183.784912      -59.106556
 H         -65.921562     -179.553925      -60.193928
 H         -65.072289     -180.949203      -60.923649
 H         -65.732590     -181.547653      -58.548786
 H         -67.465446     -181.149643      -59.056408
