20
 generated by VMD
 C         -58.530552     -161.664612      -56.320591
 N         -58.159180     -160.565109      -56.168121
 H         -59.477612     -164.846039      -55.380920
 H         -58.952847     -162.644119      -56.377689
 C         -60.309681     -164.298584      -54.807419
 C         -59.813801     -163.578918      -53.571899
 C         -61.761902     -164.379181      -54.932438
 C         -60.525238     -162.286118      -53.334755
 C         -62.446445     -163.029587      -54.841583
 C         -62.016907     -162.404724      -53.547073
 H         -58.763748     -163.233047      -53.699757
 H         -59.676701     -164.245773      -52.708321
 H         -62.165321     -164.903854      -55.901287
 H         -62.141254     -165.078079      -54.218735
 H         -60.009941     -161.483917      -53.809364
 H         -60.253487     -162.041183      -52.242588
 H         -63.504925     -163.266022      -54.698551
 H         -62.052071     -162.409012      -55.603031
 H         -62.447968     -161.385880      -53.424187
 H         -62.426250     -162.997375      -52.672749
