20
 generated by VMD
 C         -20.590755      -64.547646      -17.157370
 N         -20.057011      -64.971031      -16.196774
 H         -24.157362      -63.465878      -17.784292
 H         -20.900126      -64.336441      -18.091911
 C         -24.463984      -64.464043      -17.997322
 C         -24.745155      -64.778755      -19.477522
 C         -24.973074      -65.390533      -16.898857
 C         -24.553555      -66.344116      -19.706654
 C         -24.803913      -66.913261      -17.362448
 C         -25.347431      -67.140656      -18.726835
 H         -23.987865      -64.154205      -20.073412
 H         -25.735643      -64.355026      -19.900232
 H         -24.522362      -65.247795      -15.933178
 H         -26.086975      -65.207771      -16.635803
 H         -23.465160      -66.418953      -19.665813
 H         -24.852760      -66.537415      -20.723845
 H         -25.348545      -67.589989      -16.636364
 H         -23.742645      -67.225693      -17.357944
 H         -25.288530      -68.254921      -18.945473
 H         -26.432707      -66.853874      -18.610147
