20
 generated by VMD
 C         -75.569450     -202.149094      -66.235390
 N         -76.399841     -202.679810      -65.649353
 H         -75.853607     -200.148132      -68.909576
 H         -74.789101     -201.609589      -66.833565
 C         -75.013840     -199.521881      -69.095116
 C         -74.847778     -198.161240      -68.531540
 C         -73.913063     -199.994263      -70.093048
 C         -73.370789     -197.749283      -68.372620
 C         -73.352531     -198.645447      -70.636040
 C         -72.606354     -197.726059      -69.649292
 H         -75.464310     -198.121719      -67.612297
 H         -75.313599     -197.446060      -69.114105
 H         -73.137848     -200.496353      -69.505081
 H         -74.381310     -200.588791      -70.782974
 H         -72.915878     -198.349487      -67.583069
 H         -73.356331     -196.788116      -67.825981
 H         -74.237236     -198.111969      -70.980820
 H         -72.640434     -198.623871      -71.478569
 H         -71.463951     -198.125687      -69.442543
 H         -72.487892     -196.749405      -70.007515
