20
 generated by VMD
 C         -15.112994      -46.199665       -6.174456
 N         -14.750808      -47.216099       -5.933086
 H         -15.730397      -44.806400       -9.402244
 H         -14.634430      -44.988789      -10.851813
 C         -15.675941      -44.912819      -10.471582
 C         -16.432852      -43.748024      -11.068909
 C         -16.374998      -46.251114      -10.823683
 C         -16.627243      -43.930023      -12.550837
 C         -16.538017      -46.456120      -12.332406
 C         -17.261230      -45.246162      -12.942086
 H         -15.852777      -42.828671      -10.916790
 H         -17.463562      -43.621162      -10.599978
 H         -15.764294      -47.025314      -10.280960
 H         -17.435780      -46.224686      -10.402680
 H         -15.663834      -43.763096      -13.030663
 H         -17.353346      -43.144485      -12.867814
 H         -17.141037      -47.337784      -12.492095
 H         -15.525105      -46.590233      -12.881413
 H         -17.457300      -45.410862      -13.977118
 H         -18.309446      -45.139118      -12.581220
