20
 generated by VMD
 C         -31.896990      -76.039673      -24.197611
 N         -31.249826      -76.429550      -25.127726
 H         -29.682724      -77.699219      -22.340679
 H         -32.016544      -75.638390      -23.279062
 C         -28.665117      -77.902679      -22.147669
 C         -27.616533      -78.185463      -23.260056
 C         -28.287035      -78.389526      -20.804581
 C         -26.157495      -77.937614      -22.865116
 C         -26.855785      -77.974091      -20.394548
 C         -25.817842      -78.296432      -21.456326
 H         -27.837353      -77.644234      -24.230595
 H         -27.794218      -79.123077      -23.752041
 H         -28.974358      -77.925163      -20.073814
 H         -28.523684      -79.478203      -20.688110
 H         -25.941317      -76.847511      -23.004372
 H         -25.499952      -78.454155      -23.571396
 H         -26.609850      -78.551346      -19.575035
 H         -26.758183      -76.980644      -20.134750
 H         -24.889288      -77.705322      -21.256731
 H         -25.647783      -79.375916      -21.495258
