20
 generated by VMD
 C         -69.464661     -196.025177      -65.050156
 N         -68.581490     -196.715408      -65.289734
 H         -71.837341     -194.273727      -65.407410
 H         -70.372086     -195.594223      -64.824280
 C         -72.181572     -193.920044      -66.359497
 C         -72.194412     -192.492981      -66.611984
 C         -72.943733     -194.712952      -67.291229
 C         -73.641998     -191.977112      -66.593094
 C         -74.448929     -194.299164      -67.230835
 C         -74.617729     -192.811539      -67.415253
 H         -71.856743     -192.268341      -67.600922
 H         -71.576950     -191.988098      -65.841141
 H         -72.671043     -194.538986      -68.365898
 H         -72.920425     -195.842499      -67.111000
 H         -73.733917     -190.984772      -67.014488
 H         -73.842949     -191.865707      -65.537758
 H         -74.923004     -194.577652      -66.275116
 H         -75.001701     -194.819260      -68.028435
 H         -74.534790     -192.619156      -68.442245
 H         -75.669838     -192.428024      -67.067177
