20
 generated by VMD
 C         -12.849589      -28.696934       -5.936630
 N         -12.883132      -27.717812       -5.408818
 H         -11.635720      -31.117426       -3.676563
 H         -11.179277      -29.669731       -4.470647
 C         -10.772942      -30.523037       -3.954648
 C          -9.862939      -31.311728       -4.935970
 C          -9.981218      -30.055794       -2.729993
 C          -8.623953      -30.502682       -5.319544
 C          -8.888125      -29.127825       -3.191535
 C          -7.865264      -29.838881       -4.083817
 H         -10.363286      -31.632778       -5.798342
 H          -9.735063      -32.270130       -4.390345
 H         -10.703393      -29.524694       -2.080348
 H          -9.592825      -30.896732       -2.156950
 H          -8.973722      -29.696409       -5.966070
 H          -7.994831      -31.017660       -6.024000
 H          -8.415572      -28.663395       -2.361684
 H          -9.324939      -28.307095       -3.843693
 H          -6.911951      -29.207071       -4.187855
 H          -7.434497      -30.666830       -3.483262
