20
 generated by VMD
 C         -38.392288     -109.047394      -36.636005
 N         -37.266499     -108.804459      -36.444653
 H         -42.272266     -109.925148      -36.626160
 H         -39.427567     -109.135231      -36.725143
 C         -42.061592     -110.598587      -35.783356
 C         -41.653244     -112.003494      -35.887608
 C         -42.832111     -110.289513      -34.381214
 C         -40.751553     -112.472557      -34.757137
 C         -41.917324     -110.667694      -33.174202
 C         -41.342957     -112.145836      -33.315918
 H         -41.201622     -112.236298      -36.816956
 H         -42.502865     -112.724754      -35.871075
 H         -43.207283     -109.310043      -34.162949
 H         -43.655640     -110.925705      -34.295086
 H         -39.787640     -112.078522      -34.932255
 H         -40.688953     -113.630821      -34.917538
 H         -42.556843     -110.649788      -32.302067
 H         -41.111732     -109.976540      -33.066879
 H         -40.629345     -112.311722      -32.429344
 H         -42.196404     -112.683472      -33.165005
