20
 generated by VMD
 C         -78.539528     -209.141174      -77.174660
 N         -77.937813     -209.568939      -78.032814
 H         -79.149742     -211.559204      -74.102112
 H         -79.078133     -208.698929      -76.329346
 C         -79.237457     -212.112274      -73.139214
 C         -78.058556     -212.126938      -72.260284
 C         -80.435928     -212.966614      -72.882347
 C         -78.273918     -212.660828      -70.831604
 C         -80.562508     -213.213699      -71.368507
 C         -79.311920     -213.686951      -70.562309
 H         -77.584152     -211.167938      -72.293098
 H         -77.291458     -212.782532      -72.710075
 H         -81.322868     -212.400787      -73.091660
 H         -80.375618     -213.877213      -73.439781
 H         -78.436028     -211.716217      -70.306778
 H         -77.405174     -213.103699      -70.386765
 H         -81.369537     -214.119690      -71.231682
 H         -80.920174     -212.272491      -70.912766
 H         -79.632263     -213.706009      -69.530022
 H         -78.913948     -214.617218      -70.838577
