20
 generated by VMD
 C         -60.754791     -155.457428      -54.742420
 N         -61.099533     -156.465256      -54.169338
 H         -59.118271     -155.181946      -51.973320
 H         -60.617424     -154.610977      -55.386585
 C         -58.120213     -155.296219      -51.562225
 C         -57.593712     -154.532074      -50.368237
 C         -57.248947     -155.960297      -52.499191
 C         -56.284630     -155.227295      -49.834427
 C         -56.073399     -156.697571      -51.833481
 C         -55.281345     -155.737061      -50.919277
 H         -58.330196     -154.422104      -49.656586
 H         -57.407722     -153.476486      -50.628681
 H         -57.739147     -156.637665      -53.182453
 H         -56.702694     -155.217224      -53.201138
 H         -56.682663     -156.090225      -49.217110
 H         -55.689182     -154.635574      -49.181751
 H         -55.365013     -157.058853      -52.476742
 H         -56.519882     -157.576050      -51.303219
 H         -54.446045     -156.297729      -50.545319
 H         -54.884335     -154.797867      -51.475800
