20
 generated by VMD
 C         -11.716300      -33.688705       -8.496026
 N         -10.796193      -33.852005       -9.109768
 H         -11.552748      -37.002693       -8.025677
 H         -12.048360      -36.156696       -6.585138
 C         -12.265227      -37.001190       -7.190989
 C         -11.998215      -38.363308       -6.583892
 C         -13.717752      -36.863693       -7.686035
 C         -12.966030      -38.600426       -5.417611
 C         -14.754736      -37.225246       -6.619913
 C         -14.388068      -38.525806       -5.856116
 H         -10.979105      -38.361065       -6.123635
 H         -12.064392      -39.179581       -7.308786
 H         -13.826142      -35.765297       -7.837989
 H         -13.834058      -37.436134       -8.612597
 H         -12.857076      -37.815357       -4.581779
 H         -12.723684      -39.572208       -4.996953
 H         -15.762795      -37.314884       -7.042300
 H         -14.808249      -36.441059       -5.889637
 H         -15.003929      -38.605927       -4.941774
 H         -14.731316      -39.330025       -6.452322
