20
 generated by VMD
 C         -41.585583     -119.625343      -34.300201
 N         -41.503590     -120.307899      -35.258419
 H         -43.420864     -118.423607      -36.747231
 H         -41.427048     -118.849205      -33.574932
 C         -43.865242     -118.390678      -37.795055
 C         -42.972385     -118.357384      -39.004265
 C         -45.195007     -117.648689      -37.759567
 C         -43.752796     -118.613152      -40.225124
 C         -45.972183     -118.141640      -38.997528
 C         -45.117908     -117.876358      -40.254459
 H         -42.147861     -119.073090      -39.097458
 H         -42.423721     -117.299858      -39.193642
 H         -45.658745     -117.908569      -36.836208
 H         -45.105225     -116.585159      -37.799000
 H         -44.044735     -119.698776      -40.190544
 H         -43.274529     -118.428574      -41.228638
 H         -46.932446     -117.649208      -39.070904
 H         -46.145142     -119.179146      -38.868862
 H         -45.632275     -118.370880      -41.077957
 H         -45.013664     -116.807564      -40.407246
