20
 generated by VMD
 C         -50.862175     -129.580551      -45.291153
 N         -50.934837     -129.760269      -44.156376
 H         -49.203278     -128.693283      -41.797901
 H         -50.810566     -129.180603      -46.261192
 C         -48.205872     -128.964905      -41.591366
 C         -47.982609     -130.362045      -41.189240
 C         -47.343021     -127.965744      -41.001041
 C         -46.466633     -130.705963      -41.293919
 C         -45.892986     -128.261124      -41.349022
 C         -45.364433     -129.707489      -40.780266
 H         -48.624847     -130.968903      -41.776562
 H         -48.233261     -130.440781      -40.108070
 H         -47.490185     -126.971245      -41.442806
 H         -47.574684     -127.767532      -39.939930
 H         -46.336887     -131.041046      -42.350124
 H         -46.092846     -131.692429      -40.895828
 H         -45.137154     -127.593880      -41.006752
 H         -45.743393     -128.419281      -42.479130
 H         -44.383678     -129.997086      -41.183128
 H         -45.391838     -129.660965      -39.660183
