20
 generated by VMD
 C         -24.774513      -70.331078      -16.441715
 N         -24.949368      -70.864189      -15.450965
 H         -23.650951      -67.800133      -19.179916
 H         -24.751610      -69.842720      -17.478491
 C         -24.314720      -68.501884      -19.616299
 C         -23.826227      -69.206131      -20.752735
 C         -25.783916      -68.114929      -19.671139
 C         -24.822826      -70.101006      -21.352551
 C         -26.765263      -69.210594      -20.243397
 C         -26.243517      -69.608994      -21.595942
 H         -22.906916      -69.735756      -20.349581
 H         -23.363457      -68.693016      -21.515564
 H         -26.114500      -67.898384      -18.604551
 H         -25.744978      -67.148361      -20.249323
 H         -24.816019      -71.038658      -20.764576
 H         -24.401535      -70.310905      -22.375950
 H         -27.769104      -68.778915      -20.312071
 H         -26.901295      -70.077316      -19.596205
 H         -26.885525      -70.422096      -21.993847
 H         -26.437111      -68.764557      -22.284536
