20
 generated by VMD
 C         -51.318398     -145.576294      -44.073307
 N         -51.305023     -146.418137      -44.819759
 H         -53.193027     -144.817276      -46.660526
 H         -51.517921     -144.821365      -43.381260
 C         -53.700836     -144.333542      -47.480438
 C         -52.785698     -144.189789      -48.612179
 C         -54.789604     -143.285980      -47.314728
 C         -53.396362     -143.873581      -49.950043
 C         -55.462952     -142.902222      -48.670681
 C         -54.407696     -142.653214      -49.834702
 H         -52.059906     -145.150940      -48.596184
 H         -52.134949     -143.300705      -48.359917
 H         -55.508099     -143.505051      -46.547077
 H         -54.334717     -142.439255      -46.754169
 H         -54.062454     -144.659470      -50.235188
 H         -52.761822     -143.774048      -50.797577
 H         -56.170193     -142.005356      -48.517719
 H         -56.173298     -143.628693      -49.085011
 H         -54.919563     -142.529099      -50.831039
 H         -53.683910     -141.685257      -49.631428
