20
 generated by VMD
 C         -67.836967     -178.143738      -57.843037
 N         -67.112175     -178.660553      -57.114857
 H         -64.923546     -176.341980      -58.816883
 H         -68.490189     -177.557449      -58.464371
 C         -64.675148     -175.478897      -59.476082
 C         -65.822647     -174.613617      -59.809090
 C         -63.385277     -175.193375      -60.228378
 C         -65.431763     -173.144745      -59.707127
 C         -62.991901     -173.765991      -60.027153
 C         -64.063622     -172.833237      -60.441887
 H         -66.667778     -174.758530      -59.187881
 H         -66.116974     -174.940857      -60.868725
 H         -62.671276     -175.924438      -59.899971
 H         -63.671749     -175.499069      -61.246857
 H         -65.302605     -172.814651      -58.697186
 H         -66.206093     -172.561249      -60.158905
 H         -62.032684     -173.689926      -60.615761
 H         -62.809334     -173.393036      -59.073227
 H         -63.842037     -171.800354      -60.292103
 H         -64.346481     -172.867538      -61.546925
