20
 generated by VMD
 C         -29.698580      -87.877243      -25.115797
 N         -29.012211      -88.732475      -25.589811
 H         -31.370468      -89.842957      -27.936369
 H         -30.290545      -87.270721      -24.526094
 C         -32.379265      -89.694595      -27.514883
 C         -32.738815      -89.600449      -26.111631
 C         -33.477402      -89.503601      -28.459354
 C         -33.447906      -88.261093      -25.777838
 C         -34.107906      -88.098480      -28.220490
 C         -34.653179      -88.079720      -26.758104
 H         -31.809372      -89.664162      -25.568760
 H         -33.434093      -90.389191      -25.891603
 H         -32.968891      -89.629166      -29.399414
 H         -34.241096      -90.340286      -28.458344
 H         -32.615730      -87.492188      -25.783258
 H         -33.707615      -88.375290      -24.681520
 H         -34.928608      -87.925896      -28.945927
 H         -33.434303      -87.286591      -28.418436
 H         -34.934597      -87.090530      -26.565025
 H         -35.420258      -88.868530      -26.569901
