20
 generated by VMD
 C         -78.520660     -209.174286      -77.098221
 N         -78.075157     -209.388901      -78.144371
 H         -78.937492     -211.721863      -74.053223
 H         -78.833595     -209.031906      -76.114624
 C         -79.142212     -212.034485      -73.026489
 C         -77.903755     -212.024384      -72.149094
 C         -80.351982     -212.975586      -72.785637
 C         -78.203468     -212.526169      -70.774887
 C         -80.603699     -213.057236      -71.319016
 C         -79.340790     -213.622299      -70.688614
 H         -77.417931     -211.003983      -72.000870
 H         -77.240273     -212.747437      -72.676941
 H         -81.178078     -212.723267      -73.399521
 H         -80.180779     -214.029572      -73.210236
 H         -78.599251     -211.773117      -70.110191
 H         -77.246696     -212.853470      -70.434380
 H         -81.489494     -213.823990      -71.159828
 H         -80.818649     -212.055710      -70.913834
 H         -79.539894     -213.888672      -69.616211
 H         -79.167641     -214.477783      -71.297256
