20
 generated by VMD
 C         -58.572937     -151.762909      -49.644077
 N         -59.320683     -152.200897      -48.935524
 H         -55.718964     -149.989685      -47.931988
 H         -57.898838     -151.277283      -50.282021
 C         -55.071220     -149.505173      -48.640030
 C         -54.257183     -150.437988      -49.420185
 C         -54.827637     -148.141678      -48.981110
 C         -54.206940     -150.290329      -50.911713
 C         -54.739197     -147.883667      -50.426472
 C         -53.884487     -148.819275      -51.201694
 H         -54.469269     -151.494080      -49.185455
 H         -53.142395     -150.497910      -49.097351
 H         -55.716011     -147.627960      -48.593288
 H         -53.970165     -147.937866      -48.362656
 H         -55.222179     -150.585678      -51.217922
 H         -53.555126     -150.941544      -51.542377
 H         -54.323544     -146.975342      -50.608845
 H         -55.841652     -147.889038      -50.750988
 H         -54.025978     -148.658691      -52.284370
 H         -52.886723     -148.593246      -50.978348
