20
 generated by VMD
 C         -11.003745      -33.690353       -8.550512
 N         -10.965981      -32.976555       -9.387573
 H         -11.815408      -36.835732       -8.178764
 H         -12.129653      -36.113079       -6.625083
 C         -12.348163      -36.956528       -7.219321
 C         -11.944455      -38.215084       -6.456592
 C         -13.871178      -36.979244       -7.596147
 C         -12.885015      -38.556232       -5.288612
 C         -14.709451      -37.156433       -6.359289
 C         -14.345453      -38.472713       -5.677218
 H         -10.893216      -38.106899       -6.081011
 H         -12.073414      -39.070839       -7.150062
 H         -14.074536      -35.954292       -8.040957
 H         -13.971314      -37.775578       -8.300081
 H         -12.657924      -37.703377       -4.550723
 H         -12.754831      -39.532753       -4.807571
 H         -15.820449      -37.096920       -6.494905
 H         -14.505703      -36.423412       -5.656935
 H         -15.009274      -38.613144       -4.829795
 H         -14.595990      -39.303654       -6.344713
