20
 generated by VMD
 C         -78.402435     -209.812668      -77.308205
 N         -79.042503     -208.908371      -76.841736
 H         -78.446083     -210.347031      -73.623482
 H         -77.835373     -210.562317      -77.728661
 C         -78.522469     -211.174927      -72.849434
 C         -77.512245     -211.651642      -71.866852
 C         -79.759865     -212.045822      -72.896149
 C         -78.157150     -211.882645      -70.575317
 C         -80.232094     -212.637985      -71.577774
 C         -79.150497     -213.128326      -70.662926
 H         -76.695595     -210.950974      -71.810738
 H         -77.085274     -212.627289      -72.237732
 H         -80.592354     -211.551483      -73.443314
 H         -79.367050     -212.834381      -73.433525
 H         -78.697891     -210.964828      -70.289253
 H         -77.397995     -212.097580      -69.821632
 H         -81.104759     -213.162094      -71.670631
 H         -80.777161     -211.713425      -71.057678
 H         -79.603867     -213.305618      -69.712601
 H         -78.748451     -214.148422      -70.913254
