20
 generated by VMD
 C         -29.337408      -89.759941      -25.354485
 N         -29.405396      -88.634659      -25.695709
 H         -31.771118      -90.751793      -27.358063
 H         -29.314510      -90.709061      -24.904814
 C         -32.713242      -90.336365      -27.506998
 C         -33.789219      -90.609093      -26.563393
 C         -32.970268      -89.427475      -28.693430
 C         -34.613838      -89.384384      -26.131355
 C         -33.654751      -88.183136      -28.098957
 C         -34.927673      -88.563797      -27.398912
 H         -33.315338      -91.120995      -25.727493
 H         -34.367485      -91.473228      -27.047127
 H         -31.953449      -89.159729      -29.043716
 H         -33.625984      -89.744827      -29.516996
 H         -34.070992      -88.780281      -25.416224
 H         -35.496231      -89.722099      -25.703613
 H         -33.782429      -87.526619      -28.958771
 H         -33.016804      -87.569305      -27.409676
 H         -35.559666      -87.618629      -26.994795
 H         -35.653965      -89.177246      -27.995367
