20
 generated by VMD
 C         -59.980549     -153.226425      -51.493065
 N         -60.325825     -152.153564      -51.507248
 H         -57.011719     -153.767975      -49.582096
 H         -59.595959     -154.229721      -51.648891
 C         -56.336666     -153.015686      -49.970844
 C         -54.961731     -153.268341      -49.404160
 C         -56.705833     -151.728928      -50.666092
 C         -54.006523     -152.696396      -50.317780
 C         -55.622623     -151.041946      -51.490665
 C         -54.297890     -151.247849      -50.804775
 H         -54.869205     -154.323639      -49.226673
 H         -54.886288     -152.706390      -48.439205
 H         -57.621857     -151.823669      -51.225071
 H         -57.028851     -151.116638      -49.792301
 H         -54.063541     -153.278595      -51.274773
 H         -53.034306     -152.947006      -49.952278
 H         -55.795521     -150.018921      -51.467861
 H         -55.754509     -151.428024      -52.553608
 H         -53.483902     -150.958237      -51.409157
 H         -54.153797     -150.571762      -49.974075
