20
 generated by VMD
 C         -47.895031     -134.586243      -46.754696
 N         -47.988705     -134.256592      -47.912495
 H         -50.304722     -134.415543      -44.981941
 H         -48.179420     -135.118774      -45.847324
 C         -50.564442     -135.295639      -44.379559
 C         -50.981510     -136.618378      -45.182255
 C         -51.114250     -135.151764      -42.950138
 C         -51.003891     -137.847168      -44.277985
 C         -51.150337     -136.424728      -42.146408
 C         -51.804325     -137.614868      -43.000946
 H         -50.226528     -136.728317      -46.025581
 H         -51.861118     -136.336441      -45.623795
 H         -50.365021     -134.455460      -42.589489
 H         -52.089657     -134.705673      -42.885468
 H         -49.957458     -138.124603      -43.979954
 H         -51.373501     -138.676132      -44.925629
 H         -51.879002     -136.387344      -41.270172
 H         -50.172272     -136.676300      -41.691833
 H         -51.712120     -138.447052      -42.366463
 H         -52.893291     -137.334488      -43.206112
