20
 generated by VMD
 C         -36.746410      -98.326782      -25.920761
 N         -37.225506      -98.377060      -26.979742
 H         -36.165455      -96.122810      -28.527649
 H         -36.325451      -98.344254      -24.910206
 C         -35.577209      -95.920357      -29.419668
 C         -35.666847      -96.691696      -30.711432
 C         -34.467472      -95.006104      -29.127832
 C         -35.080009      -95.894447      -31.815882
 C         -33.956314      -94.250900      -30.377434
 C         -33.767467      -95.224976      -31.563547
 H         -36.690739      -96.809044      -30.946594
 H         -35.264668      -97.726173      -30.672548
 H         -34.805397      -94.310059      -28.337465
 H         -33.512890      -95.492828      -28.801989
 H         -35.731411      -95.135857      -32.210350
 H         -34.834362      -96.585289      -32.688251
 H         -33.072327      -93.637497      -30.111986
 H         -34.707634      -93.519272      -30.631779
 H         -33.524746      -94.464775      -32.417496
 H         -32.983315      -95.792175      -31.376518
