20
 generated by VMD
 C         -48.037090     -133.969238      -47.579903
 N         -48.094337     -133.318542      -48.594601
 H         -49.511353     -134.100983      -44.100773
 H         -47.795330     -134.357468      -46.544186
 C         -50.013657     -135.017288      -43.647537
 C         -50.223473     -136.242477      -44.495808
 C         -51.077908     -134.725693      -42.559761
 C         -50.560921     -137.408142      -43.719349
 C         -51.331421     -135.988281      -41.786552
 C         -51.676483     -137.154785      -42.736359
 H         -49.373158     -136.361572      -45.041348
 H         -50.998898     -135.841171      -45.165028
 H         -50.768723     -133.852753      -42.005123
 H         -52.015034     -134.435730      -43.078377
 H         -49.637451     -137.535202      -43.139622
 H         -50.651623     -138.329300      -44.332989
 H         -52.238144     -135.968033      -41.226311
 H         -50.484810     -136.356049      -41.159756
 H         -51.916779     -138.166260      -42.239258
 H         -52.634502     -137.046112      -43.218822
