20
 generated by VMD
 C         -46.552769     -124.476128      -36.511574
 N         -46.982307     -125.196762      -35.719002
 H         -44.418190     -122.264389      -37.952198
 H         -46.019627     -123.683502      -37.033741
 C         -44.668663     -121.836243      -38.977016
 C         -43.305077     -121.687012      -39.788292
 C         -45.743526     -120.975594      -39.536243
 C         -43.493347     -121.969292      -41.270947
 C         -45.935982     -121.204994      -40.993710
 C         -44.702026     -121.164452      -41.849609
 H         -42.786476     -122.596222      -39.437176
 H         -42.806534     -120.730278      -39.595875
 H         -46.743645     -121.084404      -39.079788
 H         -45.528881     -119.952805      -39.410408
 H         -43.410625     -123.065254      -41.625431
 H         -42.555225     -121.561455      -41.756374
 H         -46.479065     -120.396622      -41.469929
 H         -46.565334     -122.206032      -41.244888
 H         -44.895855     -121.580811      -42.815952
 H         -44.362942     -120.144226      -42.191860
