20
 generated by VMD
 C         -29.764463      -74.019974      -20.588533
 N         -29.991444      -75.093086      -20.258768
 H         -26.716557      -74.415161      -18.974140
 H         -29.646666      -72.862587      -20.569231
 C         -26.474545      -74.199265      -20.020899
 C         -26.021616      -75.339699      -20.894793
 C         -26.038218      -72.828964      -20.428196
 C         -26.027311      -74.967377      -22.426138
 C         -26.039345      -72.533089      -21.934021
 C         -25.294947      -73.707321      -22.683006
 H         -26.543062      -76.243469      -20.706997
 H         -25.054632      -75.679825      -20.610947
 H         -26.626017      -72.216141      -19.838551
 H         -25.075539      -72.661942      -20.046675
 H         -27.126640      -74.922592      -22.634783
 H         -25.600107      -75.737801      -23.085575
 H         -25.567339      -71.601799      -21.976984
 H         -27.128136      -72.503960      -22.204554
 H         -25.230812      -73.392891      -23.727024
 H         -24.291546      -73.842880      -22.224262
