20
 generated by VMD
 C         -56.034729     -149.220291      -45.837769
 N         -55.798027     -150.175797      -45.217350
 H         -53.887302     -148.144257      -47.865791
 H         -56.147194     -148.398331      -46.527710
 C         -54.024395     -147.445892      -48.674725
 C         -53.068016     -147.530731      -49.861450
 C         -54.907913     -146.107239      -48.495888
 C         -53.541996     -146.876465      -51.189369
 C         -55.175793     -145.369446      -49.847565
 C         -54.181789     -145.413132      -50.944683
 H         -52.841217     -148.653290      -50.214504
 H         -52.194824     -146.961975      -49.501347
 H         -55.893127     -146.347626      -47.962105
 H         -54.420132     -145.453400      -47.752434
 H         -54.284176     -147.409317      -51.743671
 H         -52.667763     -146.775864      -51.886848
 H         -55.678921     -144.413818      -49.705444
 H         -56.048965     -145.940796      -50.303261
 H         -54.865284     -145.208023      -51.756592
 H         -53.345669     -144.680435      -50.941730
