20
 generated by VMD
 C         -40.810093     -103.900681      -37.222240
 N         -40.693481     -104.730972      -36.439926
 H         -40.096794     -105.849266      -33.861290
 H         -41.091423     -103.027031      -37.787823
 C         -39.342751     -106.598091      -33.461639
 C         -38.050846     -106.328072      -32.780758
 C         -39.851749     -108.067139      -33.376041
 C         -37.845474     -106.867432      -31.450199
 C         -39.483116     -108.631454      -32.010727
 C         -38.095959     -108.346642      -31.380350
 H         -37.824223     -105.244949      -32.691746
 H         -37.296234     -106.626579      -33.482048
 H         -41.005615     -108.155121      -33.577671
 H         -39.426487     -108.443932      -34.276810
 H         -38.448586     -106.383080      -30.689585
 H         -36.788383     -106.646210      -31.249634
 H         -39.833099     -109.694595      -31.956537
 H         -40.247948     -108.216057      -31.383091
 H         -38.080830     -108.477562      -30.304266
 H         -37.280846     -108.997406      -31.730196
