20
 generated by VMD
 C         -28.490725      -82.488464      -26.392141
 N         -27.720770      -82.757767      -27.198322
 H         -31.306242      -83.908730      -26.455854
 H         -29.156986      -82.205055      -25.551903
 C         -31.364279      -84.745613      -25.741425
 C         -30.841167      -84.428314      -24.439650
 C         -31.995575      -85.998741      -26.116297
 C         -31.845707      -84.940971      -23.298449
 C         -33.003830      -86.373703      -25.084993
 C         -32.377304      -86.375702      -23.597824
 H         -30.524769      -83.386726      -24.275177
 H         -29.876553      -85.081184      -24.190037
 H         -32.273132      -85.885361      -27.190754
 H         -31.305002      -86.813736      -25.995821
 H         -32.653629      -84.227318      -23.201910
 H         -31.221146      -84.846939      -22.310888
 H         -33.368584      -87.406982      -25.346905
 H         -33.825764      -85.751297      -25.000862
 H         -33.214359      -86.592445      -22.917746
 H         -31.582743      -87.128792      -23.516088
