20
 generated by VMD
 C         -10.778095      -33.293495       -8.604173
 N         -11.530849      -33.439285       -9.437817
 H         -12.856493      -33.676609       -6.020815
 H         -12.866681      -34.662003       -4.506496
 C         -12.756724      -34.690922       -5.630778
 C         -11.465212      -35.358334       -5.943304
 C         -13.906672      -35.518673       -6.293758
 C         -11.469308      -36.807259       -5.453958
 C         -13.981750      -36.922474       -5.763309
 C         -12.688823      -37.701878       -5.953637
 H         -10.546447      -34.821152       -5.577324
 H         -11.292485      -35.435375       -7.045713
 H         -14.909111      -35.089600       -6.050449
 H         -13.809993      -35.446377       -7.374270
 H         -11.362466      -36.889931       -4.330873
 H         -10.528625      -37.276226       -5.744995
 H         -14.775208      -37.439892       -6.278303
 H         -14.303433      -36.989742       -4.660973
 H         -12.802938      -38.618172       -5.315232
 H         -12.509437      -38.028378       -6.984890
