20
 generated by VMD
 C         -77.965141     -203.293579      -69.596199
 N         -78.496895     -204.201569      -69.128304
 H         -75.669075     -202.326263      -67.652702
 H         -77.445320     -202.450745      -69.928413
 C         -74.932114     -201.658203      -68.262009
 C         -74.893990     -200.177094      -68.549637
 C         -73.805504     -202.500656      -68.823296
 C         -74.827995     -199.860840      -70.101608
 C         -72.983147     -201.685287      -69.804604
 C         -73.966324     -201.007294      -70.775581
 H         -74.047417     -199.801132      -68.026001
 H         -75.794647     -199.659210      -68.105202
 H         -73.166389     -202.820145      -68.039017
 H         -74.172379     -203.377380      -69.269890
 H         -74.316666     -198.938660      -70.390869
 H         -75.828796     -199.792282      -70.601501
 H         -72.215691     -202.262238      -70.384476
 H         -72.300201     -200.954330      -69.274574
 H         -73.467361     -200.526276      -71.580673
 H         -74.704887     -201.638153      -71.312920
