20
 generated by VMD
 C          -1.978797      -13.350259        0.601666
 N          -1.627364      -13.155393        1.646666
 H          -3.574100      -16.863037        1.637223
 H          -3.968743      -16.490263       -0.020793
 C          -4.389142      -16.660925        0.972938
 C          -5.252749      -15.466582        1.452005
 C          -5.260856      -17.915018        0.935463
 C          -6.458890      -15.218019        0.494585
 C          -6.496346      -17.719194        0.116308
 C          -7.279033      -16.506647        0.528320
 H          -4.576693      -14.550287        1.494550
 H          -5.713332      -15.641013        2.415570
 H          -4.758360      -18.736168        0.617816
 H          -5.478830      -18.152800        1.934240
 H          -6.094926      -14.933607       -0.471960
 H          -7.036223      -14.381359        0.854033
 H          -7.169891      -18.562256        0.277836
 H          -6.270384      -17.772738       -0.958263
 H          -8.133959      -16.417669       -0.145955
 H          -7.721399      -16.640293        1.536802
