20
 generated by VMD
 C         -11.121628      -34.047020       -8.314926
 N         -10.988657      -33.474907       -9.245712
 H         -11.565237      -37.826942       -7.951165
 H         -12.451118      -37.287292       -6.482827
 C         -12.428135      -38.003197       -7.313988
 C         -12.480782      -39.393337       -6.585849
 C         -13.711760      -37.799465       -8.119079
 C         -13.716147      -39.517262       -5.714580
 C         -14.930293      -37.862652       -7.187256
 C         -15.044948      -39.147602       -6.371187
 H         -11.609562      -39.546375       -5.960540
 H         -12.334452      -40.146011       -7.345364
 H         -13.732250      -36.829926       -8.578342
 H         -13.859666      -38.530895       -8.965718
 H         -13.634413      -38.874222       -4.845316
 H         -13.768681      -40.489704       -5.255470
 H         -15.837701      -37.801090       -7.785143
 H         -14.931843      -36.990162       -6.438448
 H         -15.895705      -39.120815       -5.629988
 H         -15.257650      -39.982468       -7.071771
