20
 generated by VMD
 C         -78.445297     -210.173782      -76.334488
 N         -77.445412     -210.796722      -76.357422
 H         -80.278107     -211.966599      -74.720184
 H         -79.450836     -209.682602      -76.323601
 C         -79.924911     -212.595322      -73.860802
 C         -78.569283     -212.687256      -73.282211
 C         -80.939720     -213.606674      -73.305260
 C         -78.444168     -212.908432      -71.758583
 C         -80.890282     -213.489197      -71.759453
 C         -79.445473     -213.856598      -71.244209
 H         -77.843620     -211.903290      -73.568764
 H         -78.279114     -213.633621      -73.799332
 H         -81.976723     -213.306885      -73.664169
 H         -80.677940     -214.532883      -73.734055
 H         -78.499413     -212.065491      -71.075813
 H         -77.368553     -213.217529      -71.526291
 H         -81.590714     -214.267502      -71.303085
 H         -81.146782     -212.531982      -71.433434
 H         -79.394814     -213.925369      -70.197754
 H         -79.184570     -214.936371      -71.505562
