20
 generated by VMD
 C         -40.503479     -117.085098      -34.498913
 N         -39.505138     -116.572655      -34.702694
 H         -41.526249     -116.710693      -37.727894
 H         -41.531796     -117.261093      -34.416893
 C         -42.545090     -116.384193      -37.886330
 C         -43.169144     -116.042664      -39.204376
 C         -43.475403     -116.120857      -36.744823
 C         -44.388481     -116.956039      -39.380810
 C         -44.760040     -116.852478      -36.894054
 C         -45.337303     -116.620171      -38.269989
 H         -42.391499     -116.255569      -39.906376
 H         -43.539162     -115.019188      -39.214474
 H         -42.999035     -116.488182      -35.888073
 H         -43.561665     -115.018555      -36.692554
 H         -44.187405     -118.079933      -39.331181
 H         -44.815460     -116.766991      -40.377827
 H         -45.393688     -116.637177      -36.102081
 H         -44.450035     -117.788513      -36.646740
 H         -46.210163     -117.140808      -38.532360
 H         -45.740593     -115.705475      -38.401844
