20
 generated by VMD
 C         -23.160044      -54.570507      -14.949462
 N         -23.794086      -53.865078      -15.715323
 H         -20.212774      -54.684277      -15.336310
 H         -22.637188      -55.245777      -14.457796
 C         -19.704824      -55.329311      -14.720356
 C         -19.147339      -54.637718      -13.444337
 C         -18.990528      -56.537525      -15.252547
 C         -18.504076      -55.569115      -12.403477
 C         -18.745075      -57.392052      -14.020015
 C         -17.763714      -56.663212      -13.066336
 H         -19.954845      -54.091423      -12.859762
 H         -18.348930      -53.962978      -13.824795
 H         -19.687088      -56.985405      -16.058737
 H         -17.987295      -56.237076      -15.644823
 H         -19.252581      -55.923344      -11.708969
 H         -17.825041      -54.976635      -11.814465
 H         -18.289124      -58.299679      -14.284891
 H         -19.709373      -57.630013      -13.550012
 H         -17.323023      -57.325817      -12.283157
 H         -16.864241      -56.249928      -13.531998
