20
 generated by VMD
 C         -30.983730      -74.892502      -22.557787
 N         -31.216791      -75.649727      -21.715534
 H         -28.710552      -77.190720      -21.022860
 H         -31.025997      -74.014702      -23.064892
 C         -27.722502      -76.872665      -21.328876
 C         -26.689230      -77.675934      -22.109018
 C         -27.257532      -75.655968      -20.641836
 C         -25.773401      -76.758522      -23.032782
 C         -26.460466      -74.742584      -21.530910
 C         -25.311001      -75.535439      -22.078623
 H         -27.145849      -78.385864      -22.820999
 H         -25.989155      -78.302177      -21.441164
 H         -28.138447      -74.987465      -20.157597
 H         -26.679293      -76.005333      -19.761543
 H         -26.331926      -76.364349      -23.870249
 H         -24.946957      -77.339378      -23.446674
 H         -26.131338      -73.815651      -21.028946
 H         -26.969130      -74.392242      -22.428272
 H         -24.786701      -74.913986      -22.797621
 H         -24.683432      -75.805634      -21.183153
