20
 generated by VMD
 C         -67.351524     -192.186661      -67.250603
 N         -68.114616     -192.794983      -66.643997
 H         -69.865967     -189.983627      -65.272964
 H         -66.779106     -191.715225      -68.060577
 C         -70.903954     -190.120255      -65.121147
 C         -71.750816     -190.815247      -66.145653
 C         -71.548752     -189.473526      -63.951546
 C         -72.849770     -191.762405      -65.585739
 C         -73.071419     -189.800491      -63.861656
 C         -73.290344     -191.338226      -64.195152
 H         -70.981522     -191.423386      -66.788124
 H         -72.159378     -190.087769      -66.837463
 H         -71.030739     -189.647308      -62.885784
 H         -71.459938     -188.386063      -64.049782
 H         -72.465012     -192.834351      -65.479500
 H         -73.733879     -191.693375      -66.220062
 H         -73.585793     -189.201218      -64.591080
 H         -73.494019     -189.668488      -62.817764
 H         -72.822617     -192.032028      -63.504360
 H         -74.315193     -191.556778      -63.993313
