20
 generated by VMD
 C         -20.078224      -56.152523      -16.823223
 N         -21.175451      -56.389656      -16.529398
 H         -21.855160      -59.418827      -17.405214
 H         -18.989904      -55.757256      -16.588558
 C         -22.242083      -59.986618      -16.508394
 C         -22.659565      -59.431793      -15.179350
 C         -22.014288      -61.414577      -16.514032
 C         -21.505280      -59.731514      -14.173872
 C         -20.857586      -61.786335      -15.602615
 C         -20.949175      -61.131321      -14.197800
 H         -23.583887      -59.904816      -14.928135
 H         -22.721987      -58.375717      -15.248821
 H         -22.996586      -61.805168      -16.094114
 H         -21.873575      -61.765297      -17.570457
 H         -21.971638      -59.615719      -13.132668
 H         -20.715216      -58.919571      -14.076145
 H         -19.973806      -61.432701      -16.061081
 H         -20.860323      -62.845402      -15.659450
 H         -21.608877      -61.724201      -13.518531
 H         -19.955330      -61.128403      -13.749271
