20
 generated by VMD
 C         -29.336582      -73.456490      -19.303642
 N         -29.741280      -74.484749      -18.982866
 H         -25.767000      -73.283058      -18.840170
 H         -29.060656      -72.537544      -19.699686
 C         -25.474573      -72.977844      -19.880697
 C         -24.914639      -73.976624      -20.799238
 C         -25.552410      -71.558472      -20.422058
 C         -25.543413      -73.973846      -22.094028
 C         -26.274298      -71.564667      -21.783178
 C         -25.683907      -72.640938      -22.769184
 H         -25.245380      -74.965271      -20.378780
 H         -23.906004      -73.846184      -20.910973
 H         -26.180645      -71.110321      -19.597580
 H         -24.595165      -71.032906      -20.536905
 H         -26.574652      -74.424118      -22.097738
 H         -24.847242      -74.616226      -22.681248
 H         -26.099129      -70.641678      -22.407078
 H         -27.347523      -71.741798      -21.765135
 H         -26.413315      -72.694344      -23.638380
 H         -24.759924      -72.300072      -23.122417
