20
 generated by VMD
 C         -59.150063     -158.777405      -57.339085
 N         -58.719906     -158.159073      -58.258698
 H         -59.828163     -159.066315      -54.061356
 H         -59.474407     -159.303055      -56.457035
 C         -59.632065     -159.974792      -53.559563
 C         -58.425892     -160.188141      -52.632839
 C         -60.624443     -161.155121      -53.624100
 C         -58.973927     -160.623383      -51.239391
 C         -60.973190     -161.701645      -52.264076
 C         -59.811680     -161.998169      -51.365211
 H         -57.832180     -159.291214      -52.601749
 H         -57.672356     -161.039139      -52.811775
 H         -61.422970     -160.748718      -54.217194
 H         -60.147564     -161.965363      -54.133945
 H         -59.639359     -159.827759      -51.022457
 H         -57.946941     -160.687653      -50.627254
 H         -61.603962     -162.551422      -52.394478
 H         -61.546936     -161.017914      -51.640209
 H         -60.137798     -162.211899      -50.325768
 H         -59.122093     -162.819321      -51.869587
