20
 generated by VMD
 C          -1.508498      -10.499752        0.972923
 N          -0.772297      -11.094633        1.614256
 H          -3.983360      -12.989319        0.090499
 H          -5.191258      -12.607690        1.296307
 C          -4.589196      -13.409893        0.899559
 C          -3.653235      -13.951204        2.037290
 C          -5.406950      -14.559819        0.366148
 C          -4.573028      -14.499958        3.154635
 C          -6.262306      -15.119247        1.449531
 C          -5.539872      -15.604157        2.673656
 H          -3.127593      -13.152308        2.512572
 H          -2.906612      -14.730860        1.714278
 H          -6.120330      -14.111685       -0.380515
 H          -4.688834      -15.281322       -0.154998
 H          -5.311213      -13.735600        3.450682
 H          -4.080658      -14.886382        4.022836
 H          -6.757904      -15.982573        1.057692
 H          -6.974598      -14.374736        1.806622
 H          -6.205211      -15.939761        3.521215
 H          -4.878006      -16.442720        2.394105
