20
 generated by VMD
 C         -68.263275     -179.495392      -58.445747
 N         -67.421326     -179.093826      -57.746704
 H         -65.917755     -176.291809      -58.787861
 H         -68.989685     -179.913956      -59.090469
 C         -65.436768     -175.738510      -59.658318
 C         -66.118225     -174.701004      -60.430996
 C         -63.930756     -176.021149      -59.623257
 C         -65.335915     -173.421356      -60.583847
 C         -63.181740     -174.785614      -59.595215
 C         -63.677464     -173.756195      -60.588360
 H         -67.046394     -174.457687      -59.892532
 H         -66.470833     -174.894623      -61.538696
 H         -63.725334     -176.604828      -58.751926
 H         -63.759220     -176.652710      -60.441574
 H         -65.321594     -172.823730      -59.641254
 H         -65.603752     -172.764099      -61.487621
 H         -62.120377     -175.029953      -59.801083
 H         -63.250240     -174.242752      -58.633720
 H         -63.154522     -172.811218      -60.504158
 H         -63.506767     -173.927292      -61.672371
