20
 generated by VMD
 C         -41.083515     -119.283997      -34.762512
 N         -40.135128     -119.147346      -35.408146
 H         -43.457504     -117.265106      -36.366364
 H         -41.860092     -119.643639      -34.125347
 C         -43.939686     -117.478851      -37.298912
 C         -42.995953     -117.789314      -38.401424
 C         -45.279587     -116.866547      -37.603374
 C         -43.660458     -118.457535      -39.620468
 C         -45.985836     -117.492157      -38.791431
 C         -45.026379     -117.750839      -39.938133
 H         -42.230377     -118.401276      -38.008957
 H         -42.712959     -116.881294      -38.911060
 H         -45.969799     -117.042809      -36.660591
 H         -45.150536     -115.789307      -37.718552
 H         -44.012989     -119.451744      -39.567162
 H         -42.969925     -118.350060      -40.550224
 H         -46.656971     -116.628777      -39.120926
 H         -46.670624     -118.400803      -38.660496
 H         -45.545555     -118.237587      -40.867805
 H         -44.778576     -116.768974      -40.292488
