20
 generated by VMD
 C         -55.664974     -148.971603      -45.502831
 N         -55.028942     -149.481705      -44.640919
 H         -54.119328     -147.946991      -48.091610
 H         -56.180798     -148.376602      -46.285404
 C         -54.247772     -147.260468      -48.887081
 C         -53.192276     -147.253235      -49.957764
 C         -54.942875     -146.019501      -48.596767
 C         -53.402351     -146.231079      -51.082565
 C         -55.214218     -145.090973      -49.787334
 C         -53.935131     -144.889114      -50.557316
 H         -53.151901     -148.233780      -50.525391
 H         -52.228123     -147.000946      -49.373119
 H         -55.821079     -146.198807      -48.066067
 H         -54.387348     -145.417969      -47.927143
 H         -54.221447     -146.595871      -51.691063
 H         -52.533264     -146.103088      -51.761173
 H         -55.402382     -144.123459      -49.247208
 H         -56.092598     -145.274872      -50.368076
 H         -54.162231     -144.058914      -51.216999
 H         -53.170372     -144.520706      -49.866051
