20
 generated by VMD
 C         -26.819170      -71.779854      -17.556059
 N         -26.762877      -72.778603      -16.981844
 H         -24.563511      -69.911758      -18.626604
 H         -26.660950      -70.845154      -18.143452
 C         -24.859394      -70.073509      -19.638662
 C         -24.017172      -71.102287      -20.371119
 C         -25.694975      -69.182816      -20.468225
 C         -25.037003      -71.909569      -21.286810
 C         -26.766180      -69.861923      -21.208275
 C         -26.089289      -70.947754      -22.048441
 H         -23.356890      -71.760605      -19.616007
 H         -23.233955      -70.484764      -21.019115
 H         -26.233210      -68.438995      -19.827084
 H         -25.020769      -68.619751      -21.107790
 H         -25.665064      -72.606483      -20.689775
 H         -24.405958      -72.498627      -21.971703
 H         -27.236601      -69.181725      -21.923323
 H         -27.480131      -70.411102      -20.639462
 H         -26.802406      -71.427528      -22.759665
 H         -25.330002      -70.505760      -22.693748
