20
 generated by VMD
 C         -65.468979     -177.576950      -56.581024
 N         -66.113411     -176.813446      -55.983925
 H         -64.265747     -175.234268      -58.715462
 H         -64.836319     -178.302292      -57.130455
 C         -64.327271     -174.169037      -59.193600
 C         -65.477783     -173.296890      -58.945671
 C         -63.659504     -173.852875      -60.517712
 C         -64.872154     -171.855667      -58.748783
 C         -63.129776     -172.342148      -60.531147
 C         -64.308815     -171.327515      -60.134159
 H         -66.051964     -173.689377      -58.171455
 H         -66.179985     -173.484253      -59.855309
 H         -62.728065     -174.439133      -60.686909
 H         -64.215797     -174.156540      -61.411774
 H         -64.074127     -171.850800      -57.952412
 H         -65.668404     -171.162582      -58.415760
 H         -62.658920     -172.114792      -61.550797
 H         -62.305275     -172.235611      -59.831860
 H         -63.761604     -170.309464      -60.013691
 H         -65.133156     -171.259628      -60.835281
