20
 generated by VMD
 C         -46.741470     -125.093605      -38.260574
 N         -47.474308     -124.703239      -37.420021
 H         -44.772671     -122.471741      -37.624920
 H         -46.088379     -125.228363      -39.099060
 C         -44.766594     -122.178680      -38.713047
 C         -43.560093     -122.646980      -39.523640
 C         -45.800716     -121.493210      -39.399921
 C         -43.828915     -123.013359      -40.932034
 C         -46.158154     -121.984558      -40.755646
 C         -44.932858     -122.310608      -41.663654
 H         -42.928726     -123.512184      -38.968735
 H         -42.843056     -121.822121      -39.540474
 H         -46.703964     -121.585106      -38.816338
 H         -45.545219     -120.368332      -39.455341
 H         -44.142246     -124.166954      -40.745789
 H         -42.828800     -122.885117      -41.373310
 H         -46.781242     -121.251625      -41.232334
 H         -46.732464     -122.816887      -40.633144
 H         -45.252350     -122.848145      -42.590366
 H         -44.528912     -121.366379      -41.991386
