20
 generated by VMD
 C         -61.137314     -156.083771      -54.576832
 N         -60.605507     -156.064758      -55.647358
 H         -59.470028     -155.756516      -51.504108
 H         -61.488117     -155.946808      -53.579247
 C         -58.425755     -155.896896      -51.288097
 C         -57.593861     -154.799057      -50.751308
 C         -57.712818     -156.888123      -52.150387
 C         -56.350060     -155.397232      -50.157173
 C         -56.373150     -157.432877      -51.645214
 C         -55.535732     -156.219376      -51.072067
 H         -58.178200     -154.301193      -49.974491
 H         -57.349327     -154.032471      -51.371380
 H         -58.571022     -157.674210      -52.230549
 H         -57.610821     -156.482330      -53.157360
 H         -56.740005     -156.013580      -49.343208
 H         -55.521423     -154.733810      -49.824783
 H         -55.700165     -157.870819      -52.471039
 H         -56.577648     -158.122116      -50.905125
 H         -54.687763     -156.675674      -50.579876
 H         -55.142693     -155.600830      -51.921822
