20
 generated by VMD
 C          -4.891578      -21.057018        1.912820
 N          -5.284427      -20.320576        2.649955
 H          -5.232689      -18.587824       -0.695141
 H          -5.487111      -20.186293       -0.121452
 C          -5.829763      -19.456211       -0.894441
 C          -5.577476      -20.028423       -2.269948
 C          -7.213054      -18.959124       -0.575757
 C          -6.697970      -20.895807       -2.728970
 C          -8.331050      -19.803228       -1.186075
 C          -7.997558      -20.077320       -2.636340
 H          -4.649166      -20.550451       -2.221767
 H          -5.407200      -19.214384       -2.979511
 H          -7.463202      -18.820236        0.530600
 H          -7.394653      -17.919352       -0.866966
 H          -6.888945      -21.703501       -2.009936
 H          -6.440139      -21.384089       -3.725234
 H          -9.309570      -19.298542       -1.053136
 H          -8.387827      -20.704416       -0.595770
 H          -8.744509      -20.705591       -3.050884
 H          -8.024785      -19.176361       -3.227321
