20
 generated by VMD
 C         -68.311813     -185.717728      -67.037735
 N         -68.019943     -184.676971      -67.478622
 H         -69.044098     -188.305466      -64.835655
 H         -68.464157     -186.761398      -66.642258
 C         -69.431938     -187.909943      -63.927975
 C         -69.077400     -186.481094      -63.543121
 C         -70.466743     -188.674225      -63.029613
 C         -69.442039     -186.149872      -62.055271
 C         -70.761047     -188.165405      -61.611176
 C         -70.759415     -186.648956      -61.523167
 H         -69.775703     -185.805557      -64.193886
 H         -68.027260     -186.191544      -63.834858
 H         -71.371277     -188.862686      -63.618641
 H         -70.072029     -189.759796      -62.961952
 H         -69.455238     -185.072098      -62.061165
 H         -68.592712     -186.582993      -61.423546
 H         -69.977570     -188.488937      -60.855473
 H         -71.714096     -188.589066      -61.196293
 H         -71.445541     -186.169937      -62.179714
 H         -71.008766     -186.459549      -60.530079
