20
 generated by VMD
 C         -79.391502     -205.489243      -70.933716
 N         -80.403183     -205.848679      -71.254013
 H         -76.720352     -203.236893      -71.393799
 H         -78.451797     -205.192612      -70.405205
 C         -76.252594     -203.188293      -70.373306
 C         -75.309364     -202.121826      -70.053719
 C         -75.730141     -204.506378      -69.712135
 C         -73.904213     -202.429245      -70.626144
 C         -74.320786     -204.495071      -69.102837
 C         -73.295578     -203.666901      -69.808006
 H         -75.363686     -201.998932      -68.986679
 H         -75.637634     -201.140274      -70.465080
 H         -76.371468     -204.778732      -68.880402
 H         -75.917511     -205.372498      -70.294037
 H         -73.251755     -201.550079      -70.610497
 H         -73.976166     -202.821869      -71.673943
 H         -73.980202     -205.468704      -68.774475
 H         -74.402138     -203.909241      -68.120613
 H         -72.550079     -203.243408      -69.014183
 H         -72.604103     -204.149612      -70.500206
