20
 generated by VMD
 C         -40.602295      -99.958664      -29.550947
 N         -40.141441     -100.201645      -28.527296
 H         -37.285908      -99.876480      -30.632050
 H         -41.154461      -99.994606      -30.539104
 C         -36.366058      -99.263847      -30.816532
 C         -35.946499      -99.279305      -32.210602
 C         -35.342113      -99.144722      -29.746351
 C         -34.786491      -98.288513      -32.390053
 C         -34.326553      -98.053406      -29.991282
 C         -33.707031      -98.273911      -31.380110
 H         -36.819061      -98.990585      -32.870358
 H         -35.686569     -100.274208      -32.565231
 H         -35.943893      -98.637253      -28.948957
 H         -34.918926      -99.984695      -29.310650
 H         -35.182549      -97.295303      -32.515190
 H         -34.539177      -98.516098      -33.454216
 H         -33.547855      -98.237953      -29.189903
 H         -34.769009      -97.085693      -29.922546
 H         -33.000408      -97.485634      -31.667072
 H         -33.151081      -99.265091      -31.410692
