20
 generated by VMD
 C         -38.048275     -109.859131      -36.280373
 N         -37.431091     -108.892799      -36.030487
 H         -40.737007     -112.514473      -37.059952
 H         -38.396454     -110.757530      -36.742397
 C         -41.266884     -112.881660      -36.197159
 C         -42.357231     -113.745796      -36.479446
 C         -41.561905     -111.714546      -35.181007
 C         -43.241470     -114.113441      -35.336632
 C         -42.409084     -112.165756      -34.060703
 C         -43.668591     -112.885147      -34.493595
 H         -42.096188     -114.719872      -36.963032
 H         -42.994911     -113.230530      -37.152233
 H         -40.561703     -111.530510      -34.965584
 H         -41.932049     -110.911453      -35.803955
 H         -42.669708     -114.813408      -34.761761
 H         -44.134048     -114.719124      -35.708344
 H         -42.620014     -111.261917      -33.487366
 H         -41.962532     -112.939423      -33.479736
 H         -44.336655     -113.219978      -33.621326
 H         -44.285488     -112.321075      -35.196411
