20
 generated by VMD
 C         -41.511822     -119.680183      -34.286861
 N         -41.601685     -120.420013      -35.148403
 H         -43.314686     -118.631737      -36.778473
 H         -41.702579     -119.051132      -33.378048
 C         -43.762611     -118.415634      -37.717728
 C         -43.062836     -118.327652      -38.962616
 C         -45.116917     -117.800491      -37.811638
 C         -43.826927     -118.703918      -40.309185
 C         -45.957886     -118.135155      -39.112637
 C         -45.217670     -117.896873      -40.399384
 H         -42.206730     -118.976807      -39.044739
 H         -42.616829     -117.267120      -39.106075
 H         -45.638412     -118.176743      -36.972824
 H         -45.107441     -116.667389      -37.635677
 H         -44.057026     -119.833382      -40.359497
 H         -43.273441     -118.475883      -41.213951
 H         -46.813847     -117.371887      -39.192276
 H         -46.447102     -119.133255      -39.068253
 H         -45.749706     -118.218132      -41.264957
 H         -45.080635     -116.792870      -40.553082
