20
 generated by VMD
 C         -12.968118      -29.943493       -7.504068
 N         -13.656801      -29.358814       -8.157174
 H         -11.481533      -30.286880       -4.885144
 H         -10.198511      -30.414816       -3.616539
 C         -10.710712      -30.950953       -4.391280
 C          -9.743967      -31.464962       -5.492241
 C         -11.473633      -32.125759       -3.739241
 C          -8.808997      -32.462399       -4.835598
 C         -10.556060      -33.150517       -3.119511
 C          -9.586400      -33.665234       -4.291885
 H          -9.266030      -30.647207       -5.953521
 H         -10.259810      -31.983395       -6.336129
 H         -12.041494      -31.612803       -2.958256
 H         -12.185323      -32.591881       -4.416257
 H          -8.134922      -32.021488       -4.060461
 H          -8.125375      -32.931255       -5.559831
 H         -11.143871      -33.978416       -2.662834
 H          -9.893498      -32.804665       -2.318863
 H          -8.926752      -34.416740       -3.837583
 H         -10.124576      -34.193890       -5.075060
