20
 generated by VMD
 C         -11.418529      -39.516678       -7.074947
 N         -10.918656      -39.852020       -6.151904
 H         -13.265841      -40.758469       -9.062130
 H         -14.753279      -39.818989       -9.136436
 C         -14.316652      -40.807449       -9.204822
 C         -14.911684      -41.679699       -8.097699
 C         -14.653747      -41.548038      -10.535262
 C         -16.402288      -41.936047       -8.271423
 C         -16.197950      -41.604496      -10.771366
 C         -16.794230      -42.492012       -9.682011
 H         -14.766193      -41.203789       -7.111652
 H         -14.424410      -42.672142       -7.958941
 H         -14.175711      -41.134697      -11.426674
 H         -14.172721      -42.607365      -10.497117
 H         -16.973417      -41.021347       -8.040804
 H         -16.783825      -42.608063       -7.467667
 H         -16.315840      -42.000824      -11.826810
 H         -16.536791      -40.616947      -10.707402
 H         -17.847946      -42.501915       -9.770617
 H         -16.409752      -43.500443       -9.732291
