20
 generated by VMD
 C          -9.976233      -24.616903        0.385418
 N         -10.426123      -25.104713       -0.508747
 H          -6.256919      -24.619951       -0.973777
 H          -8.016696      -24.535423       -1.001595
 C          -7.089486      -24.419325       -1.651863
 C          -7.148285      -25.486589       -2.696590
 C          -6.866522      -22.995127       -2.189601
 C          -8.003438      -25.067844       -3.833290
 C          -7.775284      -22.588511       -3.384094
 C          -7.723299      -23.705603       -4.458254
 H          -7.488283      -26.499329       -2.199945
 H          -6.158093      -25.811985       -3.116418
 H          -7.036733      -22.246069       -1.381220
 H          -5.795069      -22.876509       -2.344339
 H          -9.078876      -25.233139       -3.680938
 H          -7.865810      -25.824402       -4.620422
 H          -7.368610      -21.707241       -3.911308
 H          -8.839565      -22.362516       -3.110986
 H          -8.534104      -23.454262       -5.146824
 H          -6.786619      -23.667456       -4.976997
