20
 generated by VMD
 C         -39.482166     -105.547066      -37.123909
 N         -40.587322     -105.867950      -37.218876
 H         -39.283112     -107.773727      -35.130009
 H         -38.403080     -105.457314      -36.934536
 C         -39.337124     -108.570747      -34.393932
 C         -38.321724     -108.776817      -33.210754
 C         -40.761471     -109.318108      -34.309666
 C         -39.051407     -108.935013      -31.880190
 C         -41.227795     -109.373138      -32.916763
 C         -40.180145     -109.841576      -31.912687
 H         -37.635532     -107.940231      -33.165825
 H         -37.716793     -109.659676      -33.510780
 H         -41.493580     -108.871353      -34.933498
 H         -40.593845     -110.305008      -34.808670
 H         -39.286976     -108.031509      -31.317165
 H         -38.272305     -109.396683      -31.354795
 H         -42.074207     -110.090302      -32.944332
 H         -41.747208     -108.418800      -32.628689
 H         -40.620777     -109.962143      -30.962048
 H         -39.877007     -110.889427      -32.247372
