20
 generated by VMD
 C         -13.056938      -28.680349       -5.801523
 N         -12.718586      -27.720324       -5.361502
 H         -11.354831      -31.168911       -3.411259
 H         -11.425856      -29.780029       -4.308122
 C         -10.681117      -30.442636       -3.847762
 C          -9.774271      -31.109262       -4.796729
 C          -9.880246      -29.770445       -2.669324
 C          -8.720555      -30.196333       -5.305018
 C          -8.653547      -29.014423       -3.138407
 C          -7.863983      -29.699247       -4.211639
 H         -10.389105      -31.533707       -5.588820
 H          -9.310611      -32.044849       -4.440223
 H         -10.570309      -29.085875       -2.173167
 H          -9.690398      -30.567411       -1.918647
 H          -9.079290      -29.422829       -5.978939
 H          -8.122986      -30.744417       -6.019144
 H          -7.990918      -28.858006       -2.294531
 H          -8.902587      -27.971056       -3.480055
 H          -7.000049      -29.117323       -4.581031
 H          -7.398684      -30.477135       -3.598847
