20
 generated by VMD
 C         -68.262581     -194.347961      -66.361588
 N         -67.712631     -194.231400      -65.308174
 H         -70.376762     -191.014618      -66.647095
 H         -68.775055     -194.531906      -67.265099
 C         -71.397873     -191.265015      -66.337158
 C         -72.424232     -190.158600      -66.518715
 C         -71.509666     -192.119888      -65.153557
 C         -73.930176     -190.740662      -66.406837
 C         -72.871193     -192.132599      -64.440971
 C         -74.005943     -191.951630      -65.459366
 H         -72.241798     -189.803741      -67.559074
 H         -72.173729     -189.361038      -65.780876
 H         -71.386269     -193.105957      -65.461029
 H         -70.743172     -191.885727      -64.423775
 H         -74.173286     -191.146164      -67.399933
 H         -74.722382     -190.038925      -66.005943
 H         -72.872948     -191.273056      -63.752552
 H         -73.114441     -192.924652      -63.740620
 H         -73.996605     -192.969269      -66.089478
 H         -74.928459     -192.011993      -65.022461
