20
 generated by VMD
 C         -63.144314     -172.568695      -55.166096
 N         -62.607418     -173.634750      -55.096149
 H         -61.752598     -171.696106      -58.152554
 H         -63.534744     -171.593903      -55.375862
 C         -62.504227     -170.970718      -58.396835
 C         -62.386288     -169.489090      -58.190849
 C         -63.727142     -171.389542      -59.165661
 C         -63.727684     -168.727936      -58.155376
 C         -64.828972     -170.457321      -59.196190
 C         -64.944069     -169.539291      -58.051105
 H         -61.758476     -169.086472      -59.000027
 H         -61.861080     -169.247559      -57.196178
 H         -63.322380     -171.566925      -60.196369
 H         -63.973583     -172.313232      -58.666733
 H         -63.776859     -168.225235      -59.039471
 H         -63.735519     -167.896378      -57.466965
 H         -65.795937     -170.928589      -59.382446
 H         -64.839127     -169.754471      -60.026279
 H         -65.980331     -169.009689      -58.203838
 H         -65.038376     -169.997635      -57.068493
