20
 generated by VMD
 C         -41.492008     -102.363686      -34.329140
 N         -41.116753     -101.824898      -35.263420
 H         -39.495041     -104.168526      -32.343391
 H         -42.085918     -102.695984      -33.561901
 C         -38.504398     -104.270905      -32.077858
 C         -37.385746     -103.837440      -33.049057
 C         -38.267376     -105.155243      -30.870132
 C         -36.141716     -103.358383      -32.159668
 C         -36.853291     -104.966476      -30.267630
 C         -35.788342     -104.478287      -31.275686
 H         -37.539146     -103.075676      -33.851917
 H         -37.136051     -104.779549      -33.510345
 H         -38.930218     -104.918640      -29.964237
 H         -38.502232     -106.188416      -31.107197
 H         -36.545303     -102.395508      -31.759602
 H         -35.279060     -103.102486      -32.809456
 H         -36.565838     -105.925041      -29.866232
 H         -36.963486     -104.295265      -29.322195
 H         -34.896427     -104.217720      -30.756092
 H         -35.581779     -105.415092      -31.961800
