20
 generated by VMD
 C         -77.300362     -203.539612      -67.198250
 N         -77.977478     -204.369888      -66.819656
 H         -75.669670     -200.885803      -68.440331
 H         -76.621498     -202.725769      -67.500099
 C         -74.828415     -200.374908      -68.827805
 C         -74.723694     -198.888031      -68.623138
 C         -73.767937     -201.082123      -69.566177
 C         -73.609192     -198.192657      -69.426895
 C         -72.816368     -200.217270      -70.366188
 C         -73.395317     -198.747208      -70.717651
 H         -74.640633     -198.476700      -67.568207
 H         -75.748970     -198.523758      -69.063148
 H         -73.341431     -201.822800      -68.911995
 H         -74.364594     -201.652496      -70.318695
 H         -72.645302     -198.117355      -68.868370
 H         -73.999603     -197.211411      -69.654533
 H         -72.476120     -200.565552      -71.389091
 H         -71.898361     -200.035583      -69.694122
 H         -72.680557     -198.178253      -71.325180
 H         -74.365768     -199.023865      -71.254814
