20
 generated by VMD
 C         -42.080265     -101.559708      -33.322361
 N         -41.076763     -101.701912      -33.861462
 H         -38.927914     -103.532135      -32.657627
 H         -42.988770     -101.441811      -32.761200
 C         -37.910866     -103.647377      -32.173229
 C         -36.801369     -103.367813      -33.140377
 C         -37.570160     -104.125679      -30.757233
 C         -35.593571     -102.821671      -32.377235
 C         -36.639568     -103.223030      -30.098333
 C         -35.396431     -103.262733      -30.968956
 H         -37.116127     -102.614059      -33.934032
 H         -36.686127     -104.325150      -33.654686
 H         -38.559074     -104.171783      -30.169195
 H         -37.187874     -105.123055      -30.818169
 H         -35.466831     -101.738853      -32.366985
 H         -34.798031     -103.197891      -32.960140
 H         -36.554195     -103.459114      -29.097775
 H         -36.936043     -102.120758      -30.199120
 H         -34.641087     -102.602341      -30.637499
 H         -34.986931     -104.328812      -30.957748
