20
 generated by VMD
 C         -40.246162     -100.273865      -30.147779
 N         -40.980961     -100.420952      -31.020170
 H         -37.386269     -101.920158      -30.731794
 H         -39.707767      -99.918129      -29.358921
 C         -36.515717     -101.324638      -31.020468
 C         -36.455677     -100.752144      -32.364388
 C         -35.389145     -101.010178      -29.934555
 C         -35.907604      -99.309456      -32.292542
 C         -34.664276      -99.615341      -30.059687
 C         -34.619640      -99.189766      -31.454197
 H         -37.521046     -100.721741      -32.665119
 H         -35.940495     -101.468353      -32.977112
 H         -35.949371     -101.179771      -28.987492
 H         -34.678062     -101.784660      -30.040497
 H         -36.706635      -98.644844      -31.911135
 H         -35.700226      -99.076431      -33.399387
 H         -33.576714      -99.717712      -29.761028
 H         -35.110382      -98.825111      -29.405819
 H         -34.231857      -98.212540      -31.454699
 H         -33.940449      -99.752907      -32.037048
