20
 generated by VMD
 C         -59.772190     -157.485031      -56.467991
 N         -60.632225     -157.271027      -57.144421
 H         -59.854683     -157.195938      -53.166157
 H         -59.005062     -157.768936      -55.771866
 C         -59.242905     -157.870682      -52.577393
 C         -57.987873     -157.389771      -51.982594
 C         -59.392090     -159.371307      -52.770157
 C         -57.373611     -158.287277      -50.805931
 C         -58.959682     -160.214539      -51.598343
 C         -57.487309     -159.761536      -51.194576
 H         -58.163708     -156.419296      -51.727543
 H         -57.281971     -157.308090      -52.821388
 H         -60.477665     -159.568787      -53.131207
 H         -58.692486     -159.622894      -53.547951
 H         -57.735291     -157.982956      -49.813995
 H         -56.366142     -158.052643      -50.657967
 H         -59.065563     -161.269333      -51.648506
 H         -59.663677     -159.938858      -50.847645
 H         -57.144814     -160.457642      -50.343754
 H         -56.854954     -159.866669      -51.994511
