20
 generated by VMD
 C         -68.598282     -186.232864      -67.836395
 N         -68.258041     -187.315872      -67.517715
 H         -68.291206     -187.743469      -64.300560
 H         -68.919624     -185.263855      -68.055862
 C         -69.129738     -187.576340      -63.649982
 C         -68.965080     -187.328613      -62.263680
 C         -70.468384     -187.518341      -64.315048
 C         -69.854485     -188.116241      -61.406574
 C         -71.589653     -187.972076      -63.383198
 C         -71.385773     -187.812180      -61.816261
 H         -69.138954     -186.232407      -62.356361
 H         -67.945946     -187.615692      -62.011341
 H         -70.705414     -186.469147      -64.623253
 H         -70.514961     -188.278625      -65.204422
 H         -69.599762     -187.953568      -60.294426
 H         -69.787643     -189.211365      -61.528873
 H         -71.735527     -189.021088      -63.672428
 H         -72.470657     -187.362274      -63.666176
 H         -71.660629     -186.799347      -61.491631
 H         -71.947624     -188.553253      -61.229889
