20
 generated by VMD
 C         -11.731814      -25.865177       -0.887368
 N         -11.809931      -25.149414       -0.042882
 H          -8.143370      -26.413446       -1.336105
 H          -9.152208      -25.646206       -2.651868
 C          -8.121899      -25.811089       -2.278253
 C          -7.379849      -26.578192       -3.336868
 C          -7.483357      -24.355417       -2.065129
 C          -7.344113      -25.862232       -4.670536
 C          -7.441735      -23.614944       -3.440865
 C          -6.796240      -24.431219       -4.621624
 H          -7.713027      -27.632389       -3.422830
 H          -6.323776      -26.811277       -3.108813
 H          -7.991839      -23.786980       -1.225769
 H          -6.461935      -24.504145       -1.688007
 H          -8.395999      -25.928370       -5.023005
 H          -6.819352      -26.456049       -5.450305
 H          -6.836811      -22.702522       -3.294295
 H          -8.465852      -23.370647       -3.803918
 H          -7.008722      -23.897243       -5.580953
 H          -5.741152      -24.569145       -4.451766
