20
 generated by VMD
 C         -10.860532      -35.367489       -9.301713
 N         -10.318587      -35.033699       -8.349593
 H         -12.762849      -36.869705       -7.057088
 H         -14.010995      -37.521347       -5.839751
 C         -13.491332      -37.685078       -6.797821
 C         -12.820545      -39.003529       -6.648273
 C         -14.471570      -37.727879       -7.919175
 C         -13.768975      -40.218227       -6.481448
 C         -15.491911      -38.829109       -7.692571
 C         -14.918845      -40.170113       -7.503065
 H         -12.182903      -38.977314       -5.785490
 H         -12.220271      -39.166603       -7.512652
 H         -14.966159      -36.691864       -8.021396
 H         -13.920480      -37.985756       -8.841857
 H         -14.194077      -40.233112       -5.449665
 H         -13.134109      -41.120895       -6.642004
 H         -16.150583      -38.878750       -8.633091
 H         -16.140898      -38.615330       -6.848314
 H         -15.736802      -40.900166       -7.261744
 H         -14.561022      -40.509102       -8.502197
