20
 generated by VMD
 C         -35.415043      -97.518440      -25.548363
 N         -35.062077      -97.715340      -26.619417
 H         -35.759357      -94.526253      -27.748362
 H         -35.550819      -97.302467      -24.436527
 C         -35.359718      -94.430450      -28.738791
 C         -35.897991      -95.381966      -29.802231
 C         -33.945976      -93.984131      -28.999861
 C         -35.651909      -94.868401      -31.264482
 C         -33.794624      -93.484863      -30.409870
 C         -34.309792      -94.344467      -31.535948
 H         -36.971382      -95.495377      -29.762548
 H         -35.479855      -96.376480      -29.765011
 H         -33.700172      -93.242432      -28.242945
 H         -33.397030      -94.950920      -28.867050
 H         -36.415951      -94.219414      -31.686274
 H         -35.602379      -95.802559      -31.798655
 H         -32.761662      -93.315239      -30.662539
 H         -34.399799      -92.538040      -30.319654
 H         -34.144253      -93.883400      -32.611732
 H         -33.485786      -95.156876      -31.619129
