20
 generated by VMD
 C         -47.523872     -137.202179      -46.139534
 N         -47.135078     -136.652710      -47.088955
 H         -50.462185     -136.125320      -44.822781
 H         -47.708019     -137.534714      -45.107239
 C         -51.104935     -137.048203      -44.804810
 C         -51.362370     -137.952911      -46.072876
 C         -52.191338     -136.870056      -43.820446
 C         -52.130314     -139.203781      -45.635719
 C         -52.976788     -138.195389      -43.538132
 C         -53.381374     -139.038956      -44.807049
 H         -50.476974     -138.143661      -46.678188
 H         -52.176361     -137.410675      -46.654530
 H         -51.771812     -136.573395      -42.850723
 H         -52.982807     -136.146942      -44.248585
 H         -51.416656     -139.706589      -44.943417
 H         -52.310741     -139.850372      -46.463089
 H         -53.817337     -137.889374      -43.003201
 H         -52.387726     -138.885071      -42.889812
 H         -53.796585     -140.069290      -44.573227
 H         -54.046341     -138.454590      -45.378788
