20
 generated by VMD
 C         -40.738194     -100.122757      -30.022676
 N         -40.700008     -100.336113      -28.881023
 H         -37.026268     -100.502426      -30.393360
 H         -40.824821     -100.193199      -31.078894
 C         -36.448910      -99.749084      -30.774900
 C         -35.947498      -99.548820      -32.202629
 C         -35.357704      -99.711197      -29.737614
 C         -34.912506      -98.532646      -32.540409
 C         -34.358421      -98.611115      -30.088970
 C         -33.927601      -98.589615      -31.442635
 H         -36.759468      -99.442032      -32.967537
 H         -35.424755     -100.487206      -32.355400
 H         -35.738220      -99.624130      -28.685226
 H         -34.836983     -100.643082      -29.826881
 H         -35.526611      -97.653252      -32.644295
 H         -34.442860      -98.787598      -33.559956
 H         -33.455631      -98.777237      -29.450153
 H         -34.825878      -97.727905      -29.850927
 H         -33.360008      -97.692673      -31.499849
 H         -33.138596      -99.419098      -31.595449
