20
 generated by VMD
 C         -10.515236      -33.034828       -8.884158
 N         -11.052472      -33.927502       -9.359746
 H         -12.950791      -33.987804       -6.337076
 H         -13.153297      -34.692692       -4.723285
 C         -13.042259      -34.913883       -5.815671
 C         -11.721761      -35.668465       -6.046113
 C         -14.245608      -35.786217       -6.179559
 C         -11.667626      -37.091778       -5.494250
 C         -14.148454      -37.238411       -5.845629
 C         -12.835179      -37.883171       -6.172803
 H         -10.873984      -34.994148       -5.678267
 H         -11.582224      -35.732960       -7.138695
 H         -15.110695      -35.279034       -5.724075
 H         -14.464077      -35.665634       -7.243864
 H         -11.739916      -37.235390       -4.387003
 H         -10.748899      -37.611332       -5.793846
 H         -14.938479      -37.771378       -6.320889
 H         -14.373152      -37.387226       -4.701749
 H         -12.733823      -38.941006       -5.827461
 H         -12.694067      -37.944168       -7.226110
