20
 generated by VMD
 C         -31.063175      -75.699371      -22.634890
 N         -30.999683      -74.883255      -23.419987
 H         -28.745821      -78.662987      -21.353937
 H         -30.928974      -76.641930      -22.090528
 C         -27.840296      -78.010635      -21.499968
 C         -26.892565      -78.203644      -22.658339
 C         -27.477560      -77.087479      -20.465797
 C         -26.243912      -76.888626      -23.104586
 C         -26.949478      -75.729340      -21.094200
 C         -25.737963      -76.068634      -22.006939
 H         -27.442141      -78.473907      -23.458221
 H         -26.097748      -78.862885      -22.405546
 H         -28.398661      -76.863762      -20.031029
 H         -26.903515      -77.539207      -19.642683
 H         -27.038584      -76.294540      -23.617052
 H         -25.515287      -77.241287      -23.831612
 H         -26.602638      -75.065132      -20.164625
 H         -27.745451      -75.173050      -21.667583
 H         -25.405579      -75.103500      -22.479891
 H         -24.906105      -76.437546      -21.461693
