20
 generated by VMD
 C         -19.666574      -60.246769      -17.808924
 N         -19.705587      -59.131626      -17.993065
 H         -22.841766      -59.765694      -15.879195
 H         -19.846766      -61.394512      -17.657803
 C         -22.903942      -60.890537      -16.016369
 C         -23.335516      -61.575478      -17.216541
 C         -23.419678      -61.592922      -14.813635
 C         -22.769245      -62.936657      -17.255466
 C         -22.739576      -63.066566      -14.742013
 C         -23.210752      -63.758850      -16.037546
 H         -22.974102      -61.021194      -18.098825
 H         -24.397266      -61.425148      -17.441565
 H         -23.007191      -61.133659      -13.953671
 H         -24.543266      -61.546822      -14.842617
 H         -21.626896      -62.890984      -17.252150
 H         -22.963806      -63.496662      -18.167051
 H         -23.145466      -63.518181      -13.860980
 H         -21.654236      -62.944389      -14.779477
 H         -22.914484      -64.738861      -16.228949
 H         -24.292133      -63.883369      -16.062159
