20
 generated by VMD
 C         -59.395576     -168.620178      -55.765121
 N         -59.060097     -168.776001      -54.706341
 H         -62.602139     -169.777252      -55.968037
 H         -59.651245     -168.628311      -56.803692
 C         -62.892330     -168.802658      -56.440315
 C         -62.690071     -168.595230      -57.871841
 C         -63.032139     -167.585251      -55.506878
 C         -63.809269     -167.597580      -58.428135
 C         -64.083366     -166.583237      -56.132755
 C         -63.857822     -166.284882      -57.627357
 H         -62.816742     -169.592865      -58.466858
 H         -61.696400     -168.127823      -58.042072
 H         -63.442150     -167.874207      -54.375614
 H         -62.042629     -167.036407      -55.316494
 H         -64.790131     -167.991974      -58.175789
 H         -63.648804     -167.459503      -59.491116
 H         -64.023766     -165.678421      -55.598988
 H         -64.986855     -167.154922      -56.065536
 H         -64.700500     -165.681061      -58.023045
 H         -62.854183     -165.817108      -57.883411
