20
 generated by VMD
 C         -40.854321     -119.377304      -34.924091
 N         -39.850998     -118.861664      -35.307751
 H         -43.645870     -116.944664      -36.279343
 H         -41.821606     -119.526031      -34.578434
 C         -44.036156     -117.263969      -37.260372
 C         -43.043072     -117.703751      -38.322170
 C         -45.345131     -116.630051      -37.660954
 C         -43.721210     -118.393112      -39.436123
 C         -46.008869     -117.463509      -38.767994
 C         -44.927341     -117.600899      -39.839184
 H         -42.222038     -118.226532      -37.813492
 H         -42.422451     -116.811615      -38.608292
 H         -46.022400     -116.436821      -36.770645
 H         -45.103264     -115.659828      -38.138214
 H         -43.986141     -119.456566      -39.024452
 H         -42.995991     -118.567398      -40.270412
 H         -46.892937     -116.865700      -39.173866
 H         -46.257778     -118.469429      -38.172321
 H         -45.363903     -118.169922      -40.742596
 H         -44.628990     -116.595139      -40.103073
