20
 generated by VMD
 C         -11.980620      -25.677544       -0.222899
 N         -12.998986      -26.113287       -0.276016
 H          -9.534308      -26.694128       -2.731559
 H          -9.392737      -25.907194       -4.353577
 C          -8.830781      -26.203344       -3.460190
 C          -7.765162      -27.194345       -3.915574
 C          -8.166370      -25.085142       -2.693206
 C          -6.826140      -26.415939       -4.845403
 C          -7.201206      -24.334642       -3.531728
 C          -6.126297      -25.276772       -4.094897
 H          -8.278586      -28.111601       -4.365975
 H          -7.149458      -27.643341       -3.135474
 H          -8.865362      -24.396460       -2.232210
 H          -7.676110      -25.536001       -1.777861
 H          -7.438000      -26.006413       -5.658049
 H          -6.111208      -27.069317       -5.346984
 H          -6.657814      -23.619194       -2.886589
 H          -7.728464      -23.832180       -4.379444
 H          -5.389441      -24.740108       -4.724302
 H          -5.660647      -25.778891       -3.219711
