20
 generated by VMD
 C         -60.447689     -153.307281      -52.043686
 N         -60.384449     -152.489197      -51.292233
 H         -57.420887     -153.730667      -49.845322
 H         -60.520741     -154.150299      -52.733494
 C         -56.526798     -153.226135      -50.216686
 C         -55.283844     -153.543304      -49.586330
 C         -56.688744     -151.878708      -50.894787
 C         -53.994884     -152.814743      -50.086796
 C         -55.411316     -151.511124      -51.640831
 C         -54.224438     -151.476196      -50.619511
 H         -55.346363     -154.603500      -49.622372
 H         -55.391266     -153.272720      -48.499012
 H         -57.575012     -151.894974      -51.518612
 H         -56.887341     -151.095596      -50.146698
 H         -53.338139     -153.420563      -50.745235
 H         -53.304493     -152.769516      -49.205235
 H         -55.631092     -150.632599      -52.142834
 H         -55.174744     -152.368759      -52.309639
 H         -53.302818     -151.158722      -51.237782
 H         -54.281834     -150.614899      -49.927776
