20
 generated by VMD
 C         -19.920664      -61.208855      -16.990011
 N         -19.604620      -60.598694      -16.046539
 H         -22.648998      -61.573235      -18.138855
 H         -20.159567      -61.609772      -17.881939
 C         -22.910257      -62.595657      -17.761292
 C         -24.062176      -63.208195      -18.525309
 C         -22.805593      -62.941856      -16.288176
 C         -24.326809      -64.716858      -18.016069
 C         -23.439898      -64.286041      -15.766038
 C         -24.723253      -64.660873      -16.604675
 H         -23.890982      -63.175373      -19.618376
 H         -25.001863      -62.599194      -18.241720
 H         -21.765745      -62.854801      -15.983611
 H         -23.457016      -62.184753      -15.784822
 H         -23.510258      -65.317268      -18.186712
 H         -25.146683      -64.968880      -18.673113
 H         -23.781063      -64.073708      -14.741452
 H         -22.683172      -65.103745      -15.638099
 H         -25.164885      -65.543480      -16.233099
 H         -25.483118      -63.905846      -16.332228
