20
 generated by VMD
 C         -29.438311      -74.525955      -20.089661
 N         -30.558758      -74.726006      -20.274628
 H         -26.197933      -73.828339      -18.869659
 H         -28.620638      -73.988846      -19.865070
 C         -25.741333      -73.704102      -19.832409
 C         -25.640005      -74.910858      -20.749664
 C         -25.624088      -72.363106      -20.423964
 C         -26.053314      -74.700134      -22.207251
 C         -26.058105      -72.212776      -21.925373
 C         -25.652309      -73.380165      -22.808746
 H         -26.151997      -75.728737      -20.293816
 H         -24.481104      -75.085945      -20.681482
 H         -26.238306      -71.538696      -19.909359
 H         -24.624769      -72.030579      -20.531242
 H         -27.162300      -74.695305      -22.111279
 H         -25.739748      -75.427666      -22.939558
 H         -25.610571      -71.364967      -22.359961
 H         -27.182024      -72.281464      -21.979910
 H         -26.144358      -73.312050      -23.769463
 H         -24.584972      -73.443108      -22.963560
