20
 generated by VMD
 C         -60.455425     -169.642319      -55.176338
 N         -59.368687     -169.281494      -55.337955
 H         -63.670586     -170.631912      -57.079964
 H         -61.440422     -170.084274      -55.176220
 C         -63.367977     -169.612930      -57.026436
 C         -62.585449     -169.056625      -58.189640
 C         -63.859005     -168.626053      -55.934181
 C         -63.237488     -167.814560      -58.741539
 C         -64.469322     -167.389877      -56.535904
 C         -63.505203     -166.814880      -57.599640
 H         -62.536964     -169.717697      -58.949715
 H         -61.574150     -169.012360      -57.620831
 H         -64.577888     -169.069565      -55.312485
 H         -63.015701     -168.371964      -55.317497
 H         -64.203186     -167.933624      -59.295986
 H         -62.565014     -167.243484      -59.427746
 H         -64.508957     -166.632477      -55.750988
 H         -65.418816     -167.517014      -56.894485
 H         -63.985531     -165.936752      -58.013187
 H         -62.585037     -166.412079      -57.116714
