20
 generated by VMD
 C         -59.923882     -156.837326      -56.256706
 N         -60.989254     -156.334229      -56.366859
 H         -59.635963     -157.618500      -53.319389
 H         -58.888821     -157.222275      -56.150234
 C         -58.892696     -157.958969      -52.702488
 C         -57.701134     -157.050339      -52.463345
 C         -58.801533     -159.424835      -52.508755
 C         -57.301575     -157.272934      -50.913658
 C         -58.420204     -159.559402      -51.059082
 C         -57.171268     -158.756989      -50.579170
 H         -58.028976     -155.995331      -52.563511
 H         -56.778179     -157.181778      -53.080730
 H         -59.787487     -159.742035      -52.854660
 H         -57.965450     -159.885010      -53.162167
 H         -58.072926     -156.724594      -50.198650
 H         -56.314064     -156.723923      -50.666889
 H         -58.269367     -160.589935      -50.845425
 H         -59.189838     -159.229065      -50.453098
 H         -56.819881     -158.955017      -49.527100
 H         -56.253578     -159.135132      -51.152836
