20
 generated by VMD
 C          -1.510993      -11.368669        1.594153
 N          -1.114974      -12.172687        0.881301
 H          -3.606390      -13.371930        0.272036
 H          -5.301931      -12.844748        0.591968
 C          -4.532472      -13.586054        0.800075
 C          -4.250306      -13.803619        2.342584
 C          -5.005931      -14.899945        0.186200
 C          -5.324213      -14.637412        3.070342
 C          -6.097536      -15.610468        0.883789
 C          -5.698786      -15.900240        2.325778
 H          -4.062375      -12.787284        2.845263
 H          -3.242321      -14.235151        2.458108
 H          -5.228135      -14.760108       -0.893230
 H          -4.104724      -15.565423        0.186768
 H          -6.218937      -14.014025        3.135044
 H          -5.040867      -14.899182        4.118106
 H          -6.335496      -16.577232        0.405441
 H          -7.054997      -15.104053        0.890993
 H          -6.452484      -16.496063        2.869155
 H          -4.760596      -16.524370        2.315135
