20
 generated by VMD
 C         -25.177937      -70.985146      -16.954020
 N         -25.262262      -70.937477      -15.799991
 H         -24.107344      -69.001656      -18.470394
 H         -24.879229      -71.089531      -18.057281
 C         -24.508345      -68.912865      -19.510675
 C         -23.881784      -69.728699      -20.574516
 C         -25.859793      -68.224518      -19.734055
 C         -24.837137      -70.632607      -21.274176
 C         -26.846132      -69.287628      -20.507370
 C         -26.124628      -69.757515      -21.767826
 H         -22.951868      -70.193657      -20.060356
 H         -23.425154      -69.136093      -21.427574
 H         -26.418747      -67.943733      -18.849909
 H         -25.684307      -67.453270      -20.374392
 H         -25.190390      -71.440598      -20.669134
 H         -24.298651      -70.999077      -22.171125
 H         -27.797255      -68.799980      -20.730724
 H         -27.156025      -70.100426      -19.889214
 H         -26.658514      -70.476036      -22.316275
 H         -25.820353      -69.035294      -22.485197
