20
 generated by VMD
 C         -31.064867      -75.261765      -21.333714
 N         -32.053497      -75.733414      -21.757349
 H         -28.085739      -76.302704      -20.419641
 H         -30.010033      -74.787788      -21.556635
 C         -27.404266      -75.769669      -21.082132
 C         -26.691385      -76.860298      -21.812332
 C         -26.606176      -74.488556      -20.572903
 C         -25.757751      -76.329964      -22.886917
 C         -25.557631      -73.989189      -21.692413
 C         -24.822376      -75.213142      -22.295326
 H         -27.451572      -77.387009      -22.264631
 H         -26.203934      -77.439011      -20.985826
 H         -27.400497      -73.717743      -20.370283
 H         -26.249893      -74.629814      -19.615662
 H         -26.317572      -76.056999      -23.771137
 H         -25.078339      -77.091003      -23.213003
 H         -24.843929      -73.379837      -21.164143
 H         -25.996965      -73.456543      -22.495266
 H         -24.223572      -74.754639      -23.095129
 H         -24.245609      -75.747490      -21.492453
