20
 generated by VMD
 C         -23.663326      -69.312378      -16.674377
 N         -23.958746      -69.908752      -15.742916
 H         -23.959225      -66.533783      -19.006947
 H         -23.221756      -68.705269      -17.433147
 C         -24.461033      -67.310394      -19.497969
 C         -23.953901      -68.145058      -20.556128
 C         -25.962513      -67.262794      -19.274080
 C         -24.563437      -69.477356      -20.782810
 C         -26.448534      -68.660301      -19.422718
 C         -26.029871      -69.404770      -20.805893
 H         -22.827713      -68.213463      -20.476322
 H         -24.131882      -67.443756      -21.469269
 H         -26.073709      -66.755096      -18.291265
 H         -26.425770      -66.605530      -20.132130
 H         -24.138674      -70.156677      -20.077946
 H         -24.188799      -69.775856      -21.737896
 H         -27.479445      -68.640900      -19.370760
 H         -26.144934      -69.266510      -18.648640
 H         -26.443130      -70.456276      -20.839550
 H         -26.468525      -68.797928      -21.624054
