20
 generated by VMD
 C         -11.651978      -41.444912       -6.746404
 N         -11.337972      -42.401680       -6.243740
 H         -14.654185      -42.251690       -8.350501
 H         -15.161943      -41.311241       -9.582519
 C         -15.299309      -42.339615       -9.249246
 C         -16.773478      -42.574284       -8.865158
 C         -14.762834      -43.398727      -10.171653
 C         -17.607338      -42.562614      -10.126064
 C         -15.571332      -43.361267      -11.476112
 C         -17.072681      -43.399982      -11.236356
 H         -17.081247      -41.765476       -8.213931
 H         -16.891771      -43.579586       -8.430100
 H         -13.756584      -43.131691      -10.406907
 H         -14.747691      -44.394112       -9.664083
 H         -17.673058      -41.544415      -10.486543
 H         -18.629499      -42.866936       -9.858528
 H         -15.276362      -44.189896      -12.219162
 H         -15.317060      -42.488033      -12.040373
 H         -17.469381      -43.054855      -12.214021
 H         -17.439415      -44.449390      -11.180375
