20
 generated by VMD
 C         -12.069284      -25.416582       -0.576688
 N         -12.811165      -25.818388        0.137220
 H          -8.834234      -26.935110       -2.043907
 H          -9.268021      -25.950878       -3.398261
 C          -8.427214      -26.245733       -2.832806
 C          -7.461711      -27.049824       -3.736198
 C          -7.853484      -24.859030       -2.401104
 C          -6.933857      -26.113682       -4.917440
 C          -7.251664      -24.022499       -3.504269
 C          -6.341462      -24.780626       -4.457277
 H          -8.036256      -27.836842       -4.270000
 H          -6.669480      -27.414589       -3.200197
 H          -8.624079      -24.324318       -1.886148
 H          -7.018292      -25.125938       -1.715057
 H          -7.807194      -25.945972       -5.515573
 H          -6.222301      -26.647032       -5.539787
 H          -6.763048      -23.114038       -3.104290
 H          -8.068419      -23.560915       -4.083865
 H          -6.061481      -24.166649       -5.331702
 H          -5.313959      -25.012600       -4.050403
