20
 generated by VMD
 C         -49.576237     -141.656494      -45.767426
 N         -49.544781     -142.230576      -44.797226
 H         -51.768703     -138.422714      -46.178135
 H         -49.492550     -140.955627      -46.594547
 C         -52.274872     -139.311234      -46.466145
 C         -52.818356     -139.523071      -47.785183
 C         -52.969570     -140.119797      -45.322155
 C         -53.156612     -141.048233      -48.240036
 C         -53.145733     -141.640656      -45.663536
 C         -53.854450     -141.794815      -47.103207
 H         -52.181446     -139.033264      -48.498955
 H         -53.817505     -139.078552      -47.872437
 H         -52.348434     -140.040741      -44.377258
 H         -53.956230     -139.651703      -45.142220
 H         -52.143364     -141.629333      -48.449360
 H         -53.770947     -140.919098      -49.183750
 H         -53.822838     -142.163391      -44.928234
 H         -52.127079     -141.924057      -45.600864
 H         -54.018867     -142.811676      -47.339153
 H         -54.784687     -141.243774      -47.061455
