20
 generated by VMD
 C         -70.232742     -182.759048      -63.710747
 N         -69.627892     -183.008057      -64.643890
 H         -68.835854     -179.922211      -61.946095
 H         -70.710449     -182.511871      -62.814686
 C         -67.902550     -180.345276      -61.579479
 C         -67.643219     -181.833786      -61.294609
 C         -67.111374     -179.385071      -60.760788
 C         -66.205696     -182.226166      -60.991711
 C         -65.631279     -179.877289      -60.593292
 C         -65.624924     -181.311234      -60.057274
 H         -68.187393     -182.353394      -62.098972
 H         -68.254570     -182.047043      -60.435009
 H         -67.009918     -178.421112      -61.363766
 H         -67.451164     -179.303955      -59.745316
 H         -65.688538     -182.218704      -61.912815
 H         -66.189957     -183.195694      -60.499626
 H         -65.132576     -179.150528      -59.917915
 H         -65.153976     -179.912781      -61.582420
 H         -64.572792     -181.512115      -59.698803
 H         -66.273399     -181.314941      -59.217495
