20
 generated by VMD
 C         -67.601089     -179.666016      -58.564644
 N         -68.197998     -179.779190      -59.555973
 H         -67.450081     -177.024704      -59.965343
 H         -67.031548     -179.446640      -57.638477
 C         -66.399155     -176.556580      -60.168701
 C         -66.102676     -175.791367      -61.446358
 C         -65.282326     -176.938400      -59.215061
 C         -64.973892     -174.864761      -61.223045
 C         -64.115578     -176.054962      -59.155251
 C         -63.813740     -175.346313      -60.461647
 H         -66.935524     -175.170639      -61.802570
 H         -66.085335     -176.537994      -62.259670
 H         -65.685135     -177.222183      -58.245789
 H         -64.939148     -177.943970      -59.708302
 H         -65.314423     -173.891632      -60.646393
 H         -64.625046     -174.348175      -62.218395
 H         -63.272068     -176.753372      -58.883774
 H         -64.285118     -175.261337      -58.458630
 H         -63.110916     -174.507568      -60.251575
 H         -63.025230     -175.904709      -61.008198
