20
 generated by VMD
 C         -57.806232     -167.956665      -55.184364
 N         -56.764774     -168.330322      -54.927505
 H         -61.148922     -166.600037      -55.640259
 H         -58.743458     -167.662079      -55.591156
 C         -62.152855     -166.461121      -56.028526
 C         -62.577301     -167.331360      -57.156349
 C         -63.028984     -165.324295      -55.530468
 C         -64.026642     -167.409698      -57.391376
 C         -64.476707     -165.554245      -55.887424
 C         -64.652679     -166.073471      -57.268337
 H         -62.374500     -168.449265      -57.098701
 H         -62.073586     -167.080536      -58.028267
 H         -62.938599     -165.342560      -54.389465
 H         -62.558720     -164.435532      -55.851585
 H         -64.449989     -168.118408      -56.673294
 H         -64.344345     -167.827133      -58.364716
 H         -65.105721     -164.587479      -55.546764
 H         -64.883018     -166.319061      -55.148701
 H         -65.725586     -166.052917      -57.436344
 H         -64.102547     -165.394211      -57.948956
