20
 generated by VMD
 C         -28.385273      -84.285370      -27.004333
 N         -27.651382      -83.458344      -26.662498
 H         -31.674229      -84.179642      -26.205393
 H         -29.037786      -85.080177      -27.332399
 C         -31.511696      -85.247192      -25.804108
 C         -31.496038      -85.423447      -24.284492
 C         -31.925528      -86.582230      -26.569466
 C         -32.775253      -86.053711      -23.736401
 C         -33.231163      -87.057716      -26.053320
 C         -33.303493      -87.279129      -24.441761
 H         -31.226164      -84.478668      -23.827765
 H         -30.614399      -85.995262      -23.920433
 H         -32.002102      -86.521194      -27.654118
 H         -31.187372      -87.365875      -26.295425
 H         -33.566769      -85.302010      -23.693413
 H         -32.583820      -86.218933      -22.735601
 H         -33.444748      -88.033775      -26.449396
 H         -34.157955      -86.453438      -26.247772
 H         -34.407986      -87.347244      -24.251827
 H         -32.937778      -88.295876      -24.204260
