20
 generated by VMD
 C         -17.686480      -48.292271       -6.857426
 N         -17.103933      -47.396446       -6.565075
 H         -16.401682      -48.640133      -10.516150
 H         -15.511698      -48.733921      -11.935094
 C         -16.237043      -48.084873      -11.465046
 C         -15.685548      -46.688725      -11.136662
 C         -17.576794      -47.941780      -12.234400
 C         -15.445075      -45.944939      -12.429150
 C         -17.525223      -47.040768      -13.435158
 C         -16.782303      -45.767902      -13.155713
 H         -14.805007      -46.813583      -10.477992
 H         -16.514980      -46.175594      -10.613869
 H         -17.885073      -48.983387      -12.552864
 H         -18.338457      -47.494690      -11.545890
 H         -14.725746      -46.464264      -13.078149
 H         -15.060759      -44.931091      -12.194092
 H         -18.541298      -46.895481      -13.755780
 H         -16.991756      -47.494724      -14.337762
 H         -16.673620      -45.198559      -14.072010
 H         -17.411873      -45.228573      -12.499238
