20
 generated by VMD
 C         -21.729572      -66.269623      -16.596407
 N         -20.863045      -66.791298      -16.042255
 H         -24.415106      -64.030403      -18.338291
 H         -22.595449      -65.886902      -17.319635
 C         -24.463438      -65.116386      -18.648943
 C         -24.415779      -65.711205      -20.023239
 C         -25.397408      -65.958374      -17.686071
 C         -24.303673      -67.217873      -20.068743
 C         -25.783701      -67.385216      -17.977915
 C         -25.489376      -67.952484      -19.399574
 H         -23.497839      -65.272926      -20.669195
 H         -25.365047      -65.426826      -20.488819
 H         -25.292227      -65.778343      -16.684210
 H         -26.325829      -65.430840      -17.836393
 H         -23.369608      -67.394272      -19.521439
 H         -24.188662      -67.601509      -21.121189
 H         -26.758343      -67.436539      -17.562077
 H         -25.196493      -68.062050      -17.296694
 H         -25.242056      -69.039940      -19.320284
 H         -26.346123      -67.870193      -20.039471
