20
 generated by VMD
 C         -68.807587     -184.653931      -65.972435
 N         -69.576492     -185.467789      -66.203514
 H         -69.779984     -183.084915      -63.668579
 H         -68.041016     -183.909531      -65.672104
 C         -69.162323     -183.696228      -63.040146
 C         -69.884468     -184.932388      -62.534950
 C         -67.921967     -183.256012      -62.355015
 C         -68.988663     -185.807220      -61.688881
 C         -67.220879     -184.059937      -61.185104
 C         -68.277824     -185.070679      -60.584446
 H         -70.160072     -185.487946      -63.485222
 H         -70.793884     -184.603790      -62.040150
 H         -67.255638     -182.893921      -63.054440
 H         -68.162834     -182.380798      -61.767376
 H         -68.259666     -186.355438      -62.367378
 H         -69.576981     -186.639450      -61.190247
 H         -66.782478     -183.429230      -60.407227
 H         -66.419609     -184.664093      -61.629177
 H         -67.629784     -185.784973      -60.089741
 H         -68.910934     -184.572037      -60.001457
