20
 generated by VMD
 C         -69.845123     -180.987595      -62.270187
 N         -70.416168     -180.018250      -62.531986
 H         -66.597771     -181.755051      -60.215603
 H         -69.238411     -181.860123      -61.964016
 C         -66.335815     -180.675095      -60.477928
 C         -64.832657     -180.528503      -60.427700
 C         -67.273323     -179.546265      -60.363907
 C         -64.321968     -179.222595      -60.961571
 C         -66.743874     -178.334625      -60.948814
 C         -65.223274     -178.048676      -60.448177
 H         -64.366112     -181.323441      -61.049545
 H         -64.480949     -180.648987      -59.359093
 H         -68.281677     -179.858673      -60.670273
 H         -67.269417     -179.398773      -59.233181
 H         -64.518730     -179.237656      -62.069202
 H         -63.232471     -179.282028      -60.688850
 H         -67.344254     -177.484634      -60.731831
 H         -66.647705     -178.424164      -61.988342
 H         -64.881012     -176.961288      -60.986931
 H         -65.257828     -177.944290      -59.287155
