20
 generated by VMD
 C         -38.994877     -112.133621      -35.877403
 N         -38.501141     -111.549347      -36.721798
 H         -40.761395     -114.828522      -34.816502
 H         -39.580509     -112.686249      -35.096096
 C         -41.453968     -114.185547      -35.444984
 C         -41.689114     -114.442062      -36.853451
 C         -42.208050     -113.192635      -34.615574
 C         -43.295654     -114.416550      -37.205929
 C         -43.693821     -113.380241      -34.899364
 C         -44.089100     -113.370102      -36.340649
 H         -41.297413     -115.426353      -37.245293
 H         -41.397907     -113.614098      -37.510174
 H         -41.928268     -113.349953      -33.566765
 H         -41.881191     -112.149254      -34.826935
 H         -43.713036     -115.432152      -36.927109
 H         -43.414204     -114.368950      -38.335102
 H         -44.259048     -112.544899      -34.408905
 H         -43.777027     -114.415901      -34.569832
 H         -45.120972     -113.523933      -36.449760
 H         -43.830505     -112.310791      -36.620174
