20
 generated by VMD
 C         -58.447098     -158.991806      -58.076115
 N         -59.134758     -159.272263      -57.170643
 H         -58.980312     -160.366287      -54.715870
 H         -57.761642     -158.686600      -58.877972
 C         -59.428959     -160.980392      -53.924568
 C         -58.564003     -161.211700      -52.681705
 C         -60.789322     -161.671646      -54.181252
 C         -59.464199     -161.206421      -51.489304
 C         -61.534561     -161.865402      -52.825359
 C         -60.683437     -162.162079      -51.622692
 H         -57.718372     -160.471176      -52.666386
 H         -58.064522     -162.191437      -52.600414
 H         -61.341148     -160.991760      -54.899544
 H         -60.782562     -162.581787      -54.666122
 H         -59.991467     -160.164444      -51.375500
 H         -58.848381     -161.609390      -50.710018
 H         -62.173195     -162.762756      -52.992943
 H         -62.287289     -161.037842      -52.719666
 H         -61.237976     -162.075974      -50.576900
 H         -60.166222     -163.126907      -51.847595
