20
 generated by VMD
 C         -69.149750     -194.226791      -64.633659
 N         -68.401779     -193.944565      -65.441025
 H         -71.039017     -194.122055      -67.651772
 H         -69.678871     -194.535019      -63.711128
 C         -71.892487     -193.531067      -67.225395
 C         -71.538124     -192.158325      -66.626221
 C         -73.301544     -194.010635      -67.220535
 C         -72.559654     -191.674011      -65.546234
 C         -74.391968     -192.983536      -66.831337
 C         -73.929298     -192.337646      -65.430405
 H         -71.391510     -191.566208      -67.423744
 H         -70.550957     -192.388016      -66.109016
 H         -73.559448     -194.200546      -68.206612
 H         -73.465569     -194.870560      -66.629601
 H         -72.789360     -190.609680      -65.914970
 H         -72.043900     -191.630524      -64.584503
 H         -75.269859     -193.579407      -66.810051
 H         -74.493530     -192.203888      -67.615410
 H         -74.650856     -191.691971      -65.058914
 H         -73.840431     -193.281738      -64.740715
