20
 generated by VMD
 C         -60.362015     -170.447067      -55.150272
 N         -59.208645     -170.628906      -55.365608
 H         -63.148277     -170.661682      -56.737930
 H         -61.413189     -170.299500      -54.873028
 C         -63.290489     -169.565979      -56.819996
 C         -62.356697     -168.947067      -57.764553
 C         -64.548935     -168.805588      -56.357662
 C         -63.063457     -167.948349      -58.740330
 C         -65.059563     -167.865784      -57.341732
 C         -64.014534     -166.910141      -58.036564
 H         -61.863640     -169.788025      -58.381187
 H         -61.627361     -168.399063      -57.234749
 H         -65.209274     -169.740387      -56.047173
 H         -64.276962     -168.273209      -55.415718
 H         -63.730137     -168.382584      -59.473454
 H         -62.272125     -167.527725      -59.414555
 H         -65.825706     -167.247177      -56.854107
 H         -65.570808     -168.546234      -58.148716
 H         -64.453125     -166.258850      -58.742672
 H         -63.488487     -166.290863      -57.290752
