20
 generated by VMD
 C         -51.346146     -127.740005      -41.400108
 N         -51.873089     -128.673737      -41.869884
 H         -47.468197     -128.063187      -40.817863
 H         -50.651192     -126.933304      -41.229351
 C         -46.612598     -127.415077      -40.729645
 C         -45.317856     -127.710396      -40.114162
 C         -46.737141     -125.945663      -41.146118
 C         -44.011433     -127.142319      -40.758724
 C         -45.493622     -125.385742      -41.874569
 C         -44.225407     -125.677460      -41.190380
 H         -45.362564     -128.824371      -40.003693
 H         -45.455086     -127.346016      -39.126587
 H         -47.608879     -126.036133      -41.807369
 H         -46.871712     -125.288071      -40.151211
 H         -43.787022     -127.809921      -41.672165
 H         -43.219658     -127.122818      -39.963860
 H         -45.812649     -124.328514      -41.829899
 H         -45.605183     -125.670898      -42.934631
 H         -43.323071     -125.203133      -41.648552
 H         -44.321133     -125.161842      -40.248341
