20
 generated by VMD
 C         -13.669503      -43.042873       -6.110302
 N         -12.878650      -42.946640       -6.910213
 H         -14.762395      -44.825516       -8.786431
 H         -14.327803      -43.290756       -9.612395
 C         -15.111069      -44.099434       -9.596099
 C         -16.437000      -43.471569       -9.193445
 C         -15.187468      -44.969551      -10.853505
 C         -17.025570      -42.670425      -10.340162
 C         -15.756457      -44.212051      -12.033037
 C         -17.002806      -43.445709      -11.717510
 H         -16.433445      -42.923542       -8.271235
 H         -17.079185      -44.359734       -9.108393
 H         -14.254119      -45.467251      -11.128190
 H         -15.881138      -45.859646      -10.678024
 H         -16.466997      -41.761623      -10.472107
 H         -18.043179      -42.407421      -10.072303
 H         -16.024782      -44.895748      -12.823153
 H         -14.968620      -43.526707      -12.453039
 H         -17.124886      -42.786644      -12.592114
 H         -17.900015      -44.130806      -11.710192
