20
 generated by VMD
 C         -30.108135      -80.202248      -26.435581
 N         -29.520176      -79.232765      -26.199558
 H         -28.447901      -82.842255      -25.411419
 H         -30.616364      -81.058640      -26.670637
 C         -29.173037      -82.891319      -24.674858
 C         -29.011951      -82.036285      -23.538866
 C         -30.034742      -83.994987      -24.686121
 C         -30.228827      -81.877441      -22.659864
 C         -31.162491      -83.968727      -23.594755
 C         -30.718340      -83.260994      -22.250353
 H         -28.683699      -81.012413      -23.973179
 H         -28.130650      -82.287178      -22.943863
 H         -30.330954      -84.109291      -25.739737
 H         -29.461411      -84.910454      -24.521536
 H         -31.050501      -81.451836      -23.174578
 H         -29.966209      -81.312988      -21.691811
 H         -31.454981      -84.996300      -23.491457
 H         -32.024467      -83.447411      -23.963062
 H         -31.673424      -83.380638      -21.613220
 H         -29.994989      -83.824669      -21.679771
