20
 generated by VMD
 C         -50.889511     -129.361511      -45.136753
 N         -50.949070     -130.012802      -44.228699
 H         -49.053276     -128.513855      -41.929119
 H         -50.850071     -128.892899      -46.126453
 C         -48.211605     -128.759003      -41.259750
 C         -47.847927     -130.221786      -40.942688
 C         -47.178432     -127.732979      -40.941761
 C         -46.446266     -130.483398      -41.454201
 C         -45.722710     -128.175812      -41.313923
 C         -45.436974     -129.575272      -40.921165
 H         -48.578270     -130.967316      -41.447159
 H         -47.950626     -130.436600      -39.835415
 H         -47.544922     -126.869522      -41.491680
 H         -47.178310     -127.490570      -39.887714
 H         -46.309532     -130.359573      -42.512241
 H         -46.270092     -131.508560      -41.353981
 H         -45.180733     -127.363190      -40.839722
 H         -45.551044     -127.977707      -42.326313
 H         -44.430534     -129.869995      -41.334263
 H         -45.280155     -129.594650      -39.855663
