20
 generated by VMD
 C         -11.155463      -40.719318       -7.392139
 N         -11.620052      -40.390945       -6.415643
 H         -13.734848      -40.833649       -8.555820
 H         -15.050493      -39.937855       -9.139249
 C         -14.694289      -40.967339       -9.047429
 C         -15.620665      -41.680855       -8.118026
 C         -14.485001      -41.767502      -10.320971
 C         -16.911026      -42.073215       -8.792278
 C         -15.697433      -42.405693      -11.010553
 C         -16.649355      -42.990654       -9.985009
 H         -15.822144      -40.975773       -7.232500
 H         -15.162451      -42.596275       -7.622419
 H         -14.056235      -41.037994      -11.091300
 H         -13.693080      -42.492302      -10.071105
 H         -17.427874      -41.154095       -9.107550
 H         -17.550259      -42.603909       -8.112559
 H         -15.412045      -43.134544      -11.692176
 H         -16.298925      -41.599155      -11.580070
 H         -17.592104      -43.116173      -10.502341
 H         -16.259012      -43.923447       -9.645297
