20
 generated by VMD
 C         -50.778164     -129.799210      -46.221836
 N         -50.869419     -130.266678      -45.156666
 H         -48.063942     -131.777145      -44.418293
 H         -50.890659     -129.453735      -47.278011
 C         -47.807224     -131.906326      -43.353401
 C         -48.215759     -133.088791      -42.573788
 C         -48.019543     -130.578445      -42.638420
 C         -47.687534     -133.048203      -41.062435
 C         -47.383362     -130.547073      -41.255508
 C         -47.971691     -131.685776      -40.355183
 H         -47.882881     -134.052200      -42.998276
 H         -49.277966     -133.024490      -42.635246
 H         -47.606789     -129.755020      -43.161121
 H         -49.118961     -130.368134      -42.661545
 H         -46.653534     -133.345001      -41.139881
 H         -48.181999     -133.933563      -40.651360
 H         -47.628674     -129.511520      -40.746468
 H         -46.296059     -130.661758      -41.195671
 H         -47.562366     -131.727371      -39.366295
 H         -49.051071     -131.377960      -40.266026
