20
 generated by VMD
 C         -40.133518     -104.799904      -36.346821
 N         -39.447052     -104.221764      -37.113209
 H         -40.248680     -108.362267      -35.230736
 H         -40.872498     -105.196213      -35.678398
 C         -39.825397     -108.450104      -34.247326
 C         -38.790203     -107.516014      -33.766308
 C         -40.182243     -109.716125      -33.501305
 C         -38.949219     -107.278572      -32.284817
 C         -40.185974     -109.439461      -32.012054
 C         -39.051811     -108.583984      -31.372561
 H         -39.076027     -106.519684      -34.168736
 H         -37.806107     -107.871605      -34.023277
 H         -41.185108     -110.063202      -33.720592
 H         -39.583252     -110.569099      -33.766136
 H         -39.744888     -106.590195      -32.106602
 H         -38.087532     -106.672195      -32.044605
 H         -40.104919     -110.424110      -31.648159
 H         -41.234005     -109.229233      -31.680101
 H         -39.326149     -108.371796      -30.275494
 H         -38.192497     -109.164520      -31.301403
