20
 generated by VMD
 C         -40.981312     -101.369011      -32.724342
 N         -42.046864     -101.482445      -33.111103
 H         -38.682552     -103.019196      -32.354527
 H         -39.919956     -101.028770      -32.508163
 C         -37.681576     -102.798080      -32.009018
 C         -36.523216     -102.632866      -32.960594
 C         -37.380806     -102.950485      -30.544884
 C         -35.236568     -102.167816      -32.332581
 C         -36.240005     -102.205017      -30.027285
 C         -34.985474     -102.534302      -30.849846
 H         -36.862797     -101.966118      -33.777775
 H         -36.229900     -103.660706      -33.384262
 H         -38.337982     -102.706871      -30.066044
 H         -37.192924     -103.971031      -30.455469
 H         -35.163494     -100.996078      -32.396736
 H         -34.332432     -102.563980      -32.919445
 H         -36.045437     -102.461197      -28.954569
 H         -36.372189     -101.052444      -30.096281
 H         -33.974342     -102.057388      -30.666784
 H         -34.694778     -103.607605      -30.770655
