20
 generated by VMD
 C         -12.790363      -30.105055       -8.362432
 N         -13.778855      -30.603653       -8.478208
 H         -11.018060      -30.745535       -5.022103
 H         -10.668526      -31.470886       -3.557987
 C         -10.776411      -31.762327       -4.584782
 C          -9.423687      -32.297775       -4.943771
 C         -11.937845      -32.760277       -4.808752
 C          -9.224475      -33.652187       -4.248763
 C         -11.692056      -34.061981       -4.170524
 C         -10.393694      -34.650639       -4.590271
 H          -8.689204      -31.571966       -4.679628
 H          -9.371696      -32.455311       -6.055966
 H         -12.897955      -32.294559       -4.552874
 H         -11.993341      -32.898876       -5.903982
 H          -9.292739      -33.462971       -3.162986
 H          -8.226974      -34.058968       -4.412601
 H         -12.539076      -34.729443       -4.512928
 H         -11.689244      -34.011787       -3.120267
 H         -10.164714      -35.654373       -4.084457
 H         -10.407571      -34.910664       -5.652668
