20
 generated by VMD
 C         -41.530033     -119.884514      -34.119129
 N         -41.736904     -120.668480      -34.931839
 H         -43.319946     -119.034920      -36.966858
 H         -41.120224     -119.019966      -33.512749
 C         -43.807701     -118.558296      -37.843239
 C         -43.064678     -118.390579      -39.175999
 C         -45.212334     -117.965240      -37.881264
 C         -43.928925     -118.776703      -40.415524
 C         -45.999229     -118.201591      -39.267036
 C         -45.210751     -117.902184      -40.468273
 H         -42.166386     -119.052292      -39.076920
 H         -42.641273     -117.393173      -39.236019
 H         -45.726257     -118.284592      -36.926838
 H         -45.177296     -116.836082      -37.953995
 H         -44.153454     -119.874886      -40.444424
 H         -43.277245     -118.460518      -41.218163
 H         -46.927525     -117.513611      -39.210377
 H         -46.345043     -119.313408      -39.430439
 H         -45.853302     -118.272934      -41.351624
 H         -44.904091     -116.801094      -40.468792
