20
 generated by VMD
 C         -12.486036      -31.001108       -8.411692
 N         -12.036523      -30.465738       -7.565623
 H         -11.711360      -34.317047       -7.708066
 H         -12.740488      -33.566525       -6.544348
 C         -11.893031      -34.205742       -6.613458
 C         -10.671239      -33.618835       -6.006850
 C         -12.139931      -35.609676       -6.102136
 C         -10.750797      -33.572147       -4.484929
 C         -12.327001      -35.654915       -4.552746
 C         -11.112364      -34.951565       -3.867268
 H         -10.502827      -32.593811       -6.474563
 H          -9.758660      -34.136597       -6.308547
 H         -13.029650      -36.081009       -6.555440
 H         -11.326259      -36.282413       -6.377285
 H         -11.391788      -32.702892       -4.220830
 H          -9.770638      -33.192043       -4.048200
 H         -12.410644      -36.757313       -4.185923
 H         -13.307428      -35.246719       -4.357916
 H         -11.400362      -34.714897       -2.838298
 H         -10.229987      -35.616997       -3.823707
