20
 generated by VMD
 C         -22.667868      -55.427765      -17.107555
 N         -23.134777      -54.398209      -17.496857
 H         -20.470436      -56.063606      -15.140198
 H         -22.770910      -56.565510      -16.697863
 C         -20.116400      -56.988605      -14.577698
 C         -20.569647      -57.273869      -13.257402
 C         -18.866747      -57.699966      -14.981824
 C         -20.916430      -58.751259      -13.087172
 C         -19.182991      -59.137024      -15.031657
 C         -19.825207      -59.663139      -13.711009
 H         -21.520271      -56.749836      -13.094580
 H         -19.750792      -56.931732      -12.535986
 H         -18.536545      -57.273781      -15.971335
 H         -18.088041      -57.561279      -14.189855
 H         -21.833632      -58.928158      -13.661761
 H         -21.108242      -59.088505      -12.039254
 H         -18.221651      -59.649677      -15.095872
 H         -19.705740      -59.464180      -15.956824
 H         -20.257626      -60.590931      -13.975964
 H         -19.113169      -59.752312      -12.889575
