20
 generated by VMD
 C         -79.448952     -205.888718      -73.004799
 N         -80.394836     -206.490143      -72.593788
 H         -77.807899     -204.613495      -70.787224
 H         -78.671341     -205.248825      -73.433380
 C         -76.888466     -205.188095      -70.974174
 C         -75.666687     -204.402847      -71.270439
 C         -76.573326     -206.493164      -70.232552
 C         -74.713554     -204.140884      -70.080292
 C         -75.525154     -206.506638      -69.221298
 C         -74.230156     -205.548325      -69.445419
 H         -75.911850     -203.378693      -71.685806
 H         -75.040970     -204.891373      -72.012779
 H         -77.516670     -206.927048      -69.808380
 H         -76.312042     -207.103073      -71.111122
 H         -75.181633     -203.714569      -69.229340
 H         -73.854820     -203.644196      -70.392792
 H         -75.202103     -207.558762      -69.162468
 H         -75.882797     -206.342209      -68.087372
 H         -73.724831     -205.190460      -68.552620
 H         -73.454185     -206.122253      -69.969482
