20
 generated by VMD
 C         -26.834625      -71.744995      -17.596745
 N         -26.913614      -72.820847      -17.185535
 H         -24.227037      -69.977211      -18.760214
 H         -26.898518      -70.602844      -17.913385
 C         -24.875429      -70.258095      -19.574259
 C         -24.157743      -71.323715      -20.318823
 C         -25.839657      -69.300468      -20.246500
 C         -25.133701      -72.082207      -21.413027
 C         -26.747589      -70.000504      -21.339090
 C         -25.839703      -71.040703      -22.257835
 H         -23.669254      -72.244865      -19.875986
 H         -23.369406      -70.827148      -20.996323
 H         -26.481823      -68.792847      -19.493610
 H         -25.212000      -68.524124      -20.720881
 H         -25.856821      -72.662834      -20.832911
 H         -24.569933      -72.786484      -22.036390
 H         -27.339190      -69.231003      -21.889931
 H         -27.532862      -70.542343      -20.754696
 H         -26.643549      -71.506767      -22.838701
 H         -25.175798      -70.496094      -22.872139
