20
 generated by VMD
 C         -35.426292      -97.429375      -25.575132
 N         -34.869621      -97.777351      -26.530577
 H         -35.622463      -94.588257      -27.745361
 H         -36.169758      -97.102570      -24.747786
 C         -35.321568      -94.413315      -28.776300
 C         -35.963135      -95.291382      -29.768740
 C         -33.925014      -93.946945      -29.019676
 C         -35.739834      -94.894638      -31.254936
 C         -33.741547      -93.280533      -30.395632
 C         -34.283733      -94.421013      -31.501635
 H         -37.083412      -95.410843      -29.570946
 H         -35.530262      -96.278229      -29.784212
 H         -33.763092      -93.110588      -28.287212
 H         -33.320637      -94.838791      -28.763645
 H         -36.244888      -93.904327      -31.379686
 H         -36.067051      -95.605103      -31.958117
 H         -32.618382      -93.145142      -30.468575
 H         -34.273159      -92.386909      -30.515490
 H         -34.271591      -93.912178      -32.436192
 H         -33.393620      -95.235054      -31.514648
