20
 generated by VMD
 C         -18.400633      -48.960495       -7.309062
 N         -19.139801      -49.759724       -7.531881
 H         -16.181616      -47.582481      -10.048814
 H         -16.457518      -48.984734      -11.084310
 C         -16.328693      -47.929852      -11.071486
 C         -15.119699      -47.499790      -12.045591
 C         -17.647726      -47.313168      -11.595672
 C         -15.465516      -47.988178      -13.432303
 C         -17.965528      -47.538620      -13.038279
 C         -16.774252      -47.368481      -13.961429
 H         -14.222999      -47.998066      -11.738056
 H         -14.999461      -46.403595      -12.013205
 H         -18.519590      -47.547871      -10.939631
 H         -17.524773      -46.218838      -11.505131
 H         -15.413116      -49.069687      -13.599739
 H         -14.644176      -47.642525      -14.091925
 H         -18.752710      -46.884861      -13.432001
 H         -18.321154      -48.602764      -13.143622
 H         -17.032299      -47.766197      -14.919705
 H         -16.625732      -46.335773      -14.080027
