20
 generated by VMD
 C         -22.311348      -52.223129      -11.527941
 N         -22.075714      -52.775463      -10.516703
 H         -19.699320      -52.882130      -14.461411
 H         -22.848663      -51.770058      -12.630549
 C         -18.827538      -52.307613      -13.961279
 C         -17.891630      -51.571774      -14.805094
 C         -18.542707      -52.482372      -12.447070
 C         -16.481350      -52.160172      -14.594042
 C         -17.235468      -51.725887      -12.120636
 C         -16.137243      -52.243965      -13.072788
 H         -17.901314      -50.468708      -14.489101
 H         -18.164677      -51.617279      -15.894645
 H         -19.410852      -52.089504      -11.910828
 H         -18.427008      -53.526733      -12.188284
 H         -15.730100      -51.530525      -15.046635
 H         -16.311970      -53.134365      -15.044396
 H         -16.824650      -51.943645      -11.106325
 H         -17.396568      -50.602142      -12.201033
 H         -15.218401      -51.684986      -12.808305
 H         -15.803905      -53.281715      -12.854529
