20
 generated by VMD
 C         -69.083641     -184.946075      -66.562683
 N         -69.426399     -185.307190      -67.612854
 H         -69.798027     -182.924301      -63.223732
 H         -68.788597     -184.544800      -65.593712
 C         -69.328377     -183.378387      -62.296021
 C         -69.818710     -184.478989      -61.547264
 C         -68.085922     -182.754700      -61.715981
 C         -68.646187     -185.449341      -61.360489
 C         -67.009285     -183.596786      -61.213516
 C         -67.623749     -184.724655      -60.427692
 H         -70.592491     -184.941391      -62.144642
 H         -70.150246     -184.106125      -60.552780
 H         -67.623940     -182.043472      -62.401516
 H         -68.485008     -182.097916      -60.843460
 H         -68.114258     -185.729492      -62.272102
 H         -68.992844     -186.365952      -60.912354
 H         -66.187668     -182.927338      -60.744740
 H         -66.397720     -184.146805      -61.966820
 H         -66.679665     -185.365753      -60.294865
 H         -67.878998     -184.353302      -59.382072
