20
 generated by VMD
 C          -7.025692      -23.032606        2.434897
 N          -6.036187      -22.705238        2.871990
 H          -6.265332      -20.848953       -0.145484
 H          -7.679219      -21.494370       -0.494891
 C          -6.879248      -21.006363       -1.022612
 C          -6.151653      -21.938213       -2.021583
 C          -7.215381      -19.588154       -1.657461
 C          -7.043288      -22.120531       -3.256344
 C          -8.160177      -19.825821       -2.913950
 C          -7.473744      -20.789042       -3.919628
 H          -6.084768      -23.001900       -1.598599
 H          -5.162714      -21.596092       -2.236984
 H          -7.747191      -19.110275       -0.830248
 H          -6.299588      -19.025362       -1.935188
 H          -7.905490      -22.691811       -2.934880
 H          -6.489847      -22.682180       -3.992403
 H          -8.352947      -18.854527       -3.296104
 H          -9.105933      -20.267105       -2.632839
 H          -8.168747      -20.997984       -4.715206
 H          -6.567421      -20.426853       -4.327837
