20
 generated by VMD
 C         -50.700676     -128.416168      -41.945057
 N         -51.885876     -128.418259      -41.858524
 H         -47.907528     -128.063385      -40.701820
 H         -49.671497     -128.618042      -42.289917
 C         -46.891018     -127.490799      -40.719624
 C         -45.668819     -128.075272      -40.178406
 C         -46.929626     -126.046173      -41.241558
 C         -44.469528     -127.548500      -40.817795
 C         -45.585545     -125.659019      -41.883381
 C         -44.344898     -126.046440      -41.157665
 H         -45.674812     -129.135132      -40.198616
 H         -45.522083     -127.886055      -39.071575
 H         -47.499634     -125.854240      -42.153156
 H         -47.321655     -125.391724      -40.466076
 H         -44.318195     -128.047943      -41.790337
 H         -43.590919     -127.773811      -40.192154
 H         -45.552338     -124.562515      -42.039024
 H         -45.442547     -126.179955      -42.837849
 H         -43.471397     -126.080887      -41.826027
 H         -44.136368     -125.527580      -40.199139
