20
 generated by VMD
 C         -60.009418     -157.536896      -55.989689
 N         -60.211884     -157.634079      -57.169498
 H         -60.086914     -157.377228      -52.339340
 H         -59.687943     -157.550232      -54.914356
 C         -59.263680     -157.998489      -52.702751
 C         -57.857643     -157.589005      -52.190826
 C         -59.494385     -159.384811      -53.023346
 C         -57.629501     -158.427597      -50.882645
 C         -59.055950     -160.286942      -51.858448
 C         -57.718487     -159.972916      -51.221531
 H         -57.961563     -156.509872      -52.001591
 H         -57.060680     -157.668411      -52.913635
 H         -60.556076     -159.390839      -53.221066
 H         -58.894855     -159.740433      -53.977264
 H         -58.286858     -158.132858      -50.064316
 H         -56.692062     -158.096069      -50.545502
 H         -59.261246     -161.293106      -52.197182
 H         -59.678894     -160.177261      -50.992577
 H         -57.434608     -160.561844      -50.388489
 H         -56.920650     -160.230377      -52.003628
