20
 generated by VMD
 C         -68.413628     -186.052292      -67.725441
 N         -68.391426     -187.216507      -67.541420
 H         -68.209358     -187.688538      -64.405724
 H         -68.416039     -185.035355      -68.034370
 C         -69.119797     -187.657867      -63.726261
 C         -68.874290     -187.194260      -62.349682
 C         -70.579681     -187.607040      -64.206863
 C         -69.810875     -187.935944      -61.405838
 C         -71.559814     -188.144165      -63.240944
 C         -71.301109     -187.643967      -61.808468
 H         -69.039902     -186.163086      -62.504173
 H         -67.819580     -187.195892      -62.054024
 H         -70.880501     -186.552673      -64.358353
 H         -70.672699     -188.042038      -65.149971
 H         -69.514778     -187.562531      -60.426891
 H         -69.717171     -189.000565      -61.423450
 H         -71.681854     -189.256439      -63.226784
 H         -72.570671     -187.912796      -63.604115
 H         -71.590919     -186.581039      -61.718079
 H         -72.202782     -188.089981      -61.169819
