20
 generated by VMD
 C         -30.127583      -92.700150      -25.386257
 N         -30.973116      -93.401588      -25.813457
 H         -32.874657      -91.274887      -26.416759
 H         -29.218437      -92.160194      -24.972319
 C         -33.592785      -91.268677      -27.280161
 C         -34.814106      -92.116982      -27.383736
 C         -33.158211      -90.495422      -28.521080
 C         -35.873894      -91.645081      -28.440992
 C         -34.329315      -89.946327      -29.389135
 C         -35.320072      -91.102234      -29.766823
 H         -35.155750      -92.210022      -26.438066
 H         -34.576519      -93.138527      -27.730597
 H         -32.612564      -89.620628      -28.212471
 H         -32.328831      -91.038010      -29.034046
 H         -36.541031      -90.923355      -27.898445
 H         -36.475025      -92.553558      -28.577898
 H         -34.121910      -89.622940      -30.411631
 H         -34.917645      -89.108536      -29.023607
 H         -36.023827      -90.768387      -30.511353
 H         -34.817406      -91.962997      -30.220322
