20
 generated by VMD
 C          -6.586259      -22.565126        1.983255
 N          -6.211255      -22.899889        2.965581
 H          -5.656023      -20.073006       -0.315531
 H          -7.143278      -20.792479       -0.246492
 C          -6.450021      -20.380993       -0.986191
 C          -5.908196      -21.458431       -1.958010
 C          -7.191277      -19.285685       -1.743889
 C          -7.048173      -22.115244       -2.880718
 C          -8.263357      -19.856047       -2.667694
 C          -7.705289      -20.935760       -3.690290
 H          -5.447217      -22.247915       -1.283817
 H          -5.160862      -21.004324       -2.613527
 H          -7.656599      -18.639500       -1.040463
 H          -6.400375      -18.726990       -2.243024
 H          -7.773649      -22.751102       -2.382503
 H          -6.547182      -22.762398       -3.583228
 H          -8.710835      -19.058044       -3.255075
 H          -9.125676      -20.196499       -2.075390
 H          -8.517559      -21.386610       -4.228291
 H          -7.008024      -20.473001       -4.362218
