20
 generated by VMD
 C         -15.288305      -47.474731       -6.207491
 N         -15.458522      -46.729958       -5.405684
 H         -16.231365      -46.835457       -9.790524
 H         -15.112427      -46.749138      -11.068667
 C         -16.141674      -46.534378      -10.853099
 C         -16.424267      -45.029694      -10.921160
 C         -17.058006      -47.206703      -11.836771
 C         -16.323652      -44.329018      -12.326583
 C         -16.820189      -46.552418      -13.178303
 C         -17.172478      -45.056221      -13.382309
 H         -15.775243      -44.482056      -10.196815
 H         -17.428722      -44.944748      -10.442216
 H         -16.776218      -48.305363      -11.938051
 H         -18.117878      -47.191418      -11.519913
 H         -15.254349      -44.464546      -12.610751
 H         -16.500580      -43.242878      -12.394592
 H         -17.487017      -47.144547      -13.889023
 H         -15.805762      -46.649944      -13.458990
 H         -16.701992      -44.824619      -14.362003
 H         -18.239321      -44.903637      -13.311170
