20
 generated by VMD
 C         -21.558525      -65.788177      -17.000851
 N         -20.970387      -66.368149      -16.165199
 H         -24.386293      -63.903172      -18.175781
 H         -21.985445      -65.276604      -17.768627
 C         -24.430197      -64.916519      -18.435135
 C         -24.489914      -65.389153      -19.806845
 C         -25.371807      -65.733719      -17.457542
 C         -24.255554      -66.849167      -19.985500
 C         -25.182920      -67.157478      -17.567352
 C         -25.273100      -67.608582      -19.058470
 H         -23.704493      -64.885307      -20.398411
 H         -25.437311      -65.245163      -20.276991
 H         -25.047365      -65.446259      -16.504932
 H         -26.401058      -65.504364      -17.682711
 H         -23.204172      -67.089455      -19.785868
 H         -24.539644      -67.283363      -20.974936
 H         -25.904947      -67.737701      -17.007395
 H         -24.156607      -67.518974      -17.281242
 H         -24.982958      -68.649666      -18.981916
 H         -26.338690      -67.550491      -19.463692
