20
 generated by VMD
 C         -78.787994     -209.291336      -76.776947
 N         -79.748978     -208.753601      -77.070274
 H         -78.192703     -209.014755      -72.838470
 H         -77.877594     -209.930817      -76.503548
 C         -78.025841     -209.920166      -72.287186
 C         -76.891083     -210.132584      -71.375336
 C         -79.140282     -210.818405      -72.362953
 C         -77.445236     -210.658051      -70.076515
 C         -79.490166     -211.658035      -71.220818
 C         -78.240875     -211.925507      -70.394020
 H         -76.438477     -209.191177      -71.137070
 H         -76.188026     -210.886734      -71.778297
 H         -80.024673     -210.263123      -72.740082
 H         -78.966324     -211.478577      -73.147980
 H         -78.022476     -209.919983      -69.500664
 H         -76.599358     -210.977509      -69.462845
 H         -80.153030     -212.664017      -71.461311
 H         -80.189270     -211.094391      -70.690811
 H         -78.628639     -212.039078      -69.386276
 H         -77.699783     -212.807144      -70.773567
