20
 generated by VMD
 C         -70.245338     -182.672562      -63.683846
 N         -69.584747     -182.966934      -64.570633
 H         -68.803024     -180.173126      -61.904903
 H         -70.882256     -182.410797      -62.808975
 C         -67.836739     -180.435059      -61.542065
 C         -67.676514     -181.866089      -61.242966
 C         -67.061821     -179.347427      -60.781441
 C         -66.218346     -182.220810      -61.096786
 C         -65.669937     -179.789627      -60.579124
 C         -65.596161     -181.184479      -60.030487
 H         -68.015869     -182.578613      -61.987419
 H         -68.308754     -182.165955      -60.380611
 H         -67.114845     -178.384308      -61.252319
 H         -67.649109     -179.116562      -59.949863
 H         -65.656830     -182.168808      -61.974945
 H         -66.127182     -183.174957      -60.737968
 H         -65.232521     -179.193665      -59.781338
 H         -65.110809     -179.653290      -61.526947
 H         -64.507965     -181.510727      -60.095871
 H         -65.954895     -181.227417      -58.967186
