20
 generated by VMD
 C         -78.264153     -210.091019      -76.371063
 N         -77.415504     -210.889816      -76.227982
 H         -80.243843     -212.256638      -74.898476
 H         -79.114250     -209.362076      -76.506767
 C         -80.015205     -212.764297      -73.908707
 C         -78.594864     -212.782028      -73.462975
 C         -81.025841     -213.729889      -73.252350
 C         -78.465439     -212.938278      -71.916443
 C         -81.024017     -213.654602      -71.664619
 C         -79.490997     -213.846024      -71.262100
 H         -77.963997     -211.993912      -73.803307
 H         -78.121864     -213.639420      -74.044434
 H         -82.036217     -213.436111      -73.592712
 H         -80.800827     -214.717896      -73.576622
 H         -78.665527     -211.931122      -71.532608
 H         -77.455582     -213.350876      -71.648529
 H         -81.780426     -214.332123      -71.152771
 H         -81.392395     -212.710297      -71.412933
 H         -79.489807     -213.495148      -70.265495
 H         -79.123978     -214.820587      -71.439400
