20
 generated by VMD
 C         -60.538025     -156.281982      -54.641132
 N         -60.203274     -155.416183      -55.362862
 H         -59.858791     -157.045364      -51.628689
 H         -60.823479     -156.926956      -53.800884
 C         -58.816990     -157.070572      -52.054741
 C         -58.032246     -155.760040      -52.105873
 C         -57.942303     -158.228363      -52.047382
 C         -57.044285     -155.680161      -50.980404
 C         -56.856800     -158.212219      -50.997169
 C         -56.105522     -156.899704      -51.015282
 H         -58.945740     -155.012085      -51.976448
 H         -57.517868     -155.575333      -53.087963
 H         -58.525631     -159.146332      -51.826466
 H         -57.406128     -158.226715      -52.933899
 H         -57.595406     -155.630020      -50.076317
 H         -56.277504     -154.883026      -50.873066
 H         -55.969059     -158.916122      -51.139900
 H         -57.288170     -158.470856      -50.002838
 H         -55.542740     -156.899612      -50.133793
 H         -55.457932     -156.788986      -51.973797
