20
 generated by VMD
 C         -22.030064      -55.163036      -17.368610
 N         -22.288818      -55.460087      -18.452168
 H         -21.314068      -56.684914      -13.900040
 H         -21.607298      -55.335102      -16.334419
 C         -21.016050      -57.630558      -14.180218
 C         -20.952438      -58.312878      -12.944971
 C         -20.091618      -57.897621      -15.253263
 C         -20.837482      -59.786251      -13.124322
 C         -19.970242      -59.356762      -15.476726
 C         -19.800987      -60.139297      -14.157895
 H         -21.768063      -58.011288      -12.254164
 H         -19.966209      -57.967831      -12.465858
 H         -20.415920      -57.275635      -16.119781
 H         -19.140757      -57.536327      -14.981366
 H         -21.766193      -60.290176      -13.303171
 H         -20.527590      -60.200123      -12.180749
 H         -19.201109      -59.655235      -16.184870
 H         -20.894489      -59.733643      -15.866769
 H         -19.805452      -61.198368      -14.360410
 H         -18.881310      -59.861748      -13.629601
