20
 generated by VMD
 C         -68.149750     -188.207336      -66.579247
 N         -68.824387     -188.782272      -67.291359
 H         -68.238052     -187.013290      -63.581882
 H         -67.634071     -187.496567      -65.895081
 C         -69.216400     -187.526611      -63.628963
 C         -69.409332     -189.046814      -63.197815
 C         -70.428230     -186.718918      -63.383636
 C         -70.810677     -189.618027      -63.506275
 C         -71.724823     -187.366241      -63.784924
 C         -71.971886     -188.728638      -63.132168
 H         -69.249176     -188.945511      -62.136520
 H         -68.674255     -189.760223      -63.600403
 H         -70.427948     -186.382965      -62.353165
 H         -70.352257     -185.636856      -63.791416
 H         -70.898598     -190.495651      -62.798855
 H         -70.872879     -189.905792      -64.548935
 H         -71.797630     -187.354385      -64.855675
 H         -72.636307     -186.816010      -63.494492
 H         -72.062302     -188.721359      -62.028900
 H         -72.884842     -189.108032      -63.550354
