20
 generated by VMD
 C         -18.319128      -49.103085       -7.731110
 N         -19.156790      -49.808475       -7.879584
 H         -16.183798      -47.357281      -10.069422
 H         -16.814062      -48.823002      -10.672247
 C         -16.478296      -47.840000      -10.988701
 C         -15.272972      -47.956730      -11.888425
 C         -17.638302      -47.120724      -11.636504
 C         -15.501697      -48.129066      -13.397530
 C         -17.994757      -47.819374      -12.998076
 C         -16.813931      -47.463139      -13.903764
 H         -14.563787      -48.671207      -11.505118
 H         -14.744391      -46.977581      -11.874885
 H         -18.448296      -47.227314      -10.880328
 H         -17.394030      -46.068600      -11.827335
 H         -15.694832      -49.192833      -13.552711
 H         -14.577698      -47.748890      -13.879107
 H         -18.915606      -47.428104      -13.377563
 H         -18.193583      -48.944347      -12.773163
 H         -17.042311      -47.773529      -14.925933
 H         -16.711990      -46.391445      -13.949724
