20
 generated by VMD
 C          -3.366964      -19.680552        3.399847
 N          -3.738106      -18.673172        3.108824
 H          -5.384758      -20.257427       -0.002772
 H          -6.424949      -21.324938       -1.056071
 C          -6.162060      -20.304684       -0.778244
 C          -5.741754      -19.466057       -1.943949
 C          -7.415496      -19.662365       -0.297068
 C          -6.747859      -19.298853       -3.123230
 C          -8.511087      -19.525991       -1.370130
 C          -8.044263      -18.770666       -2.608259
 H          -4.750478      -19.833130       -2.338532
 H          -5.530087      -18.530695       -1.537379
 H          -7.752641      -20.320391        0.558582
 H          -7.212235      -18.624485        0.201362
 H          -6.890326      -20.353476       -3.516860
 H          -6.289046      -18.645071       -3.914663
 H          -9.437201      -19.107330       -0.885698
 H          -8.757954      -20.546940       -1.705849
 H          -8.840323      -18.720400       -3.327972
 H          -7.859165      -17.744474       -2.313928
