20
 generated by VMD
 C         -58.231140     -167.494812      -55.367512
 N         -57.218716     -167.900742      -55.060646
 H         -61.284813     -166.567810      -55.201065
 H         -59.162334     -167.116165      -55.812302
 C         -61.854340     -166.070007      -55.948345
 C         -62.225517     -166.975220      -57.097527
 C         -62.693230     -164.958801      -55.634159
 C         -63.667698     -167.401382      -57.034836
 C         -64.185387     -165.301239      -55.597275
 C         -64.603653     -166.171112      -56.791431
 H         -61.639999     -167.872833      -57.054455
 H         -62.126476     -166.373810      -58.107548
 H         -62.484795     -164.455322      -54.732067
 H         -62.519550     -164.173798      -56.487759
 H         -63.732624     -168.279419      -56.323391
 H         -63.887028     -167.920288      -58.004383
 H         -64.700317     -164.413055      -55.660076
 H         -64.440437     -165.848862      -54.666107
 H         -65.642372     -166.534210      -56.631130
 H         -64.450279     -165.661514      -57.735592
