20
 generated by VMD
 C         -40.468319     -117.425789      -34.544590
 N         -39.471462     -116.990341      -34.926342
 H         -41.833565     -116.311737      -37.231018
 H         -41.275433     -117.951950      -34.174225
 C         -42.813484     -116.468079      -37.612713
 C         -42.932575     -116.505226      -39.155514
 C         -43.995197     -116.268578      -36.670925
 C         -44.194496     -117.273819      -39.503029
 C         -45.207436     -116.955795      -37.165493
 C         -45.359531     -116.646233      -38.729809
 H         -42.086231     -116.989197      -39.628517
 H         -43.069756     -115.466019      -39.379997
 H         -43.632568     -116.634216      -35.645302
 H         -44.022621     -115.238548      -36.507168
 H         -43.912106     -118.331787      -39.234612
 H         -44.286205     -117.217529      -40.605659
 H         -46.177517     -116.640663      -36.682236
 H         -45.316467     -117.974106      -36.947952
 H         -46.208603     -117.085442      -39.025291
 H         -45.388836     -115.580925      -38.902462
