20
 generated by VMD
 C         -41.611500     -120.178680      -34.169750
 N         -42.167519     -121.199722      -34.416229
 H         -43.433105     -119.505714      -37.363598
 H         -40.989182     -119.313065      -33.924496
 C         -43.859806     -118.932159      -38.146412
 C         -43.168049     -118.734467      -39.377048
 C         -45.300518     -118.438896      -38.136566
 C         -43.985859     -118.848122      -40.677383
 C         -46.064156     -118.343735      -39.384911
 C         -45.241207     -117.971451      -40.632366
 H         -42.250523     -119.376556      -39.469765
 H         -42.609035     -117.714500      -39.365612
 H         -45.854103     -119.056030      -37.340443
 H         -45.156578     -117.389320      -37.733376
 H         -44.210403     -119.874092      -40.773933
 H         -43.369984     -118.471573      -41.493958
 H         -46.915474     -117.697601      -39.328121
 H         -46.499218     -119.432449      -39.572521
 H         -45.793560     -118.082573      -41.576965
 H         -44.771648     -117.004906      -40.788342
