20
 generated by VMD
 C         -42.018543     -101.683800      -33.558636
 N         -40.895653     -101.824806      -33.878380
 H         -39.137981     -103.677895      -32.495361
 H         -43.036224     -101.958389      -33.115337
 C         -38.005428     -103.627312      -32.282608
 C         -36.782257     -103.647987      -33.137428
 C         -37.861877     -104.147186      -30.810171
 C         -35.861225     -102.770004      -32.416412
 C         -36.613762     -103.639503      -30.080633
 C         -35.485020     -103.504654      -31.053692
 H         -37.031170     -103.209091      -34.068375
 H         -36.370827     -104.672882      -33.294918
 H         -38.803940     -103.883881      -30.343395
 H         -37.746956     -105.252449      -30.972912
 H         -36.214485     -101.708176      -32.223145
 H         -34.895153     -102.708298      -33.085232
 H         -36.415028     -104.354660      -29.207911
 H         -36.707565     -102.670601      -29.694305
 H         -34.662109     -102.892738      -30.513704
 H         -35.039928     -104.488205      -31.251566
