20
 generated by VMD
 C         -49.443939     -132.190262      -46.388763
 N         -50.302460     -132.121658      -47.263077
 H         -47.555271     -133.991409      -44.250019
 H         -48.495300     -132.339005      -45.896488
 C         -48.522377     -134.302979      -43.826965
 C         -49.055611     -135.778839      -43.842838
 C         -49.173489     -133.276581      -43.006805
 C         -49.783733     -136.112137      -42.581429
 C         -49.894493     -133.790390      -41.767658
 C         -50.719894     -134.993927      -42.175026
 H         -48.223980     -136.480820      -44.098148
 H         -49.784950     -135.854095      -44.588196
 H         -48.307560     -132.527954      -42.687679
 H         -49.897720     -132.680527      -43.609348
 H         -49.096775     -136.312180      -41.713070
 H         -50.393017     -137.071121      -42.869080
 H         -50.562405     -133.132996      -41.311153
 H         -49.114841     -133.979889      -41.029564
 H         -51.439152     -135.434448      -41.449287
 H         -51.508873     -134.684494      -42.928539
