20
 generated by VMD
 C         -68.199997     -194.322250      -66.271156
 N         -67.755569     -194.356049      -65.178268
 H         -70.999992     -191.707870      -67.379097
 H         -68.911201     -194.379181      -67.099594
 C         -71.483383     -191.375717      -66.453278
 C         -72.382057     -190.207108      -66.428192
 C         -71.574242     -192.303619      -65.351120
 C         -73.968208     -190.701843      -66.314522
 C         -72.870117     -192.246445      -64.626877
 C         -74.046867     -191.978043      -65.528160
 H         -72.324814     -189.615143      -67.306778
 H         -72.159073     -189.439926      -65.557312
 H         -71.452873     -193.244904      -65.897263
 H         -70.704590     -192.170044      -64.596222
 H         -74.341995     -190.856827      -67.355759
 H         -74.432121     -189.780975      -65.886864
 H         -72.703064     -191.394516      -63.876293
 H         -73.066536     -193.178101      -64.097031
 H         -74.178253     -192.867874      -66.207550
 H         -74.881546     -191.895081      -64.890335
