20
 generated by VMD
 C         -68.996651     -180.655533      -61.043949
 N         -69.837830     -181.154831      -60.419994
 H         -67.029907     -178.559692      -59.546711
 H         -68.253502     -180.148300      -61.640656
 C         -66.333710     -177.745575      -59.827148
 C         -65.840012     -177.811676      -61.297134
 C         -65.375511     -177.240784      -58.751728
 C         -64.992203     -176.483841      -61.640987
 C         -64.482803     -176.075485      -59.363483
 C         -63.902603     -176.344727      -60.666805
 H         -66.670807     -177.991425      -61.996281
 H         -65.207474     -178.669617      -61.457634
 H         -66.075485     -176.852478      -57.934689
 H         -64.795113     -178.070572      -58.351948
 H         -65.780304     -175.734131      -61.805809
 H         -64.468597     -176.765152      -62.621212
 H         -63.636406     -175.908722      -58.727867
 H         -65.191635     -175.253311      -59.360374
 H         -63.293705     -175.420029      -61.029217
 H         -63.221939     -177.204727      -60.623795
