20
 generated by VMD
 C         -30.816568      -92.787659      -26.283728
 N         -30.797806      -92.515930      -25.151876
 H         -32.481201      -90.150276      -26.490887
 H         -30.979874      -93.092979      -27.373259
 C         -33.203671      -90.485184      -27.239429
 C         -34.025795      -91.679787      -27.080770
 C         -33.247375      -89.608330      -28.487055
 C         -35.291805      -91.775787      -27.995552
 C         -34.501263      -89.745079      -29.257231
 C         -35.150272      -91.159065      -29.383268
 H         -34.408642      -91.981735      -26.140388
 H         -33.444557      -92.511139      -27.323994
 H         -33.251717      -88.584770      -28.123466
 H         -32.369392      -89.786774      -29.031895
 H         -36.060417      -91.313560      -27.410938
 H         -35.653194      -92.850639      -28.154137
 H         -34.309273      -89.258965      -30.256060
 H         -35.319019      -89.107079      -28.850681
 H         -36.177570      -91.276276      -29.797911
 H         -34.457672      -91.714226      -30.101788
