20
 generated by VMD
 C         -65.301712     -176.758179      -56.053562
 N         -65.720398     -177.435684      -55.182384
 H         -63.748768     -174.373581      -58.738491
 H         -64.947517     -176.139008      -56.899185
 C         -64.272682     -173.731003      -59.397743
 C         -65.270882     -172.799454      -58.753193
 C         -63.684639     -173.275391      -60.774742
 C         -64.605820     -171.467728      -58.681149
 C         -63.139317     -171.830063      -60.662483
 C         -64.175652     -170.966690      -59.996143
 H         -65.375099     -173.089081      -57.702110
 H         -66.302940     -172.747910      -59.293839
 H         -62.909653     -173.984497      -61.120831
 H         -64.374763     -173.454239      -61.560211
 H         -63.784050     -171.315903      -57.909107
 H         -65.419518     -170.756332      -58.365089
 H         -62.890690     -171.404907      -61.696236
 H         -62.266930     -171.833664      -60.029884
 H         -63.666183     -170.029953      -59.738571
 H         -65.016602     -170.697784      -60.545044
