20
 generated by VMD
 C         -58.532135     -161.991791      -56.414680
 N         -57.374943     -161.672791      -56.440514
 H         -59.396206     -164.534973      -55.455189
 H         -59.582943     -162.298538      -56.468933
 C         -60.290554     -164.182571      -54.985653
 C         -60.293026     -163.784927      -53.519993
 C         -61.639481     -164.369431      -55.510731
 C         -61.218063     -162.672821      -53.120586
 C         -62.630867     -163.419235      -55.027664
 C         -62.611050     -163.104538      -53.583557
 H         -59.246601     -163.572784      -53.258427
 H         -60.566051     -164.673157      -52.992599
 H         -61.605587     -164.348389      -56.620766
 H         -61.846523     -165.437073      -55.309597
 H         -60.907707     -161.653961      -53.455967
 H         -61.159676     -162.559692      -52.023594
 H         -63.630249     -163.935257      -55.331841
 H         -62.531128     -162.494110      -55.674961
 H         -63.263016     -162.254761      -53.378441
 H         -62.941780     -163.892365      -52.833542
