20
 generated by VMD
 C         -58.492672     -151.936478      -49.573944
 N         -59.579990     -152.211884      -49.134563
 H         -56.126892     -149.826813      -48.330330
 H         -57.537170     -151.547379      -49.930840
 C         -55.112938     -149.636276      -48.762451
 C         -54.202236     -150.617493      -49.395878
 C         -54.819805     -148.234192      -49.037384
 C         -54.239567     -150.374710      -50.888794
 C         -54.759544     -147.859848      -50.434738
 C         -53.923008     -148.900681      -51.158218
 H         -54.669388     -151.570770      -49.161381
 H         -53.259941     -150.539459      -48.996136
 H         -55.571850     -147.537933      -48.582333
 H         -53.825756     -147.886703      -48.704750
 H         -55.220112     -150.634201      -51.375080
 H         -53.554985     -151.112900      -51.287834
 H         -54.443600     -146.732605      -50.582134
 H         -55.667385     -147.742722      -51.015778
 H         -53.958275     -148.698898      -52.236965
 H         -52.792797     -148.766312      -50.895390
