20
 generated by VMD
 C         -49.254654     -140.927368      -45.531219
 N         -48.257122     -141.326141      -45.069729
 H         -51.256950     -138.562195      -46.023537
 H         -50.252262     -140.768250      -46.019047
 C         -52.019783     -139.376373      -46.241104
 C         -52.646812     -139.438278      -47.660892
 C         -52.858154     -139.863785      -45.175858
 C         -53.382607     -140.690643      -47.976227
 C         -53.431648     -141.226395      -45.498699
 C         -54.192612     -141.268677      -46.833260
 H         -51.850796     -139.238129      -48.359020
 H         -53.449577     -138.648163      -47.792603
 H         -52.277802     -139.910553      -44.269630
 H         -53.624191     -139.207520      -44.949329
 H         -52.827629     -141.552948      -48.324780
 H         -54.028549     -140.378006      -48.778805
 H         -54.043289     -141.661209      -44.670094
 H         -52.578777     -141.951691      -45.373703
 H         -54.640507     -142.256699      -47.142803
 H         -55.093620     -140.586014      -46.479916
