20
 generated by VMD
 C         -70.486259     -182.211594      -63.739391
 N         -69.485832     -182.723267      -64.130165
 H         -68.562691     -180.481094      -62.383213
 H         -71.409882     -181.786682      -63.461864
 C         -67.892876     -180.554214      -61.473148
 C         -67.405342     -181.873154      -61.042870
 C         -67.312172     -179.422455      -60.657360
 C         -65.882050     -181.983627      -60.959209
 C         -65.700233     -179.429749      -60.740929
 C         -65.185249     -180.774750      -60.156261
 H         -67.646919     -182.622742      -61.799522
 H         -67.842384     -182.462952      -60.161564
 H         -67.698898     -178.492554      -61.082092
 H         -67.610779     -179.316803      -59.616421
 H         -65.529594     -181.952942      -61.932465
 H         -65.634369     -182.849289      -60.454391
 H         -65.416367     -178.646408      -60.013134
 H         -65.282433     -179.284744      -61.779942
 H         -64.097855     -180.836151      -60.219536
 H         -65.515755     -181.024490      -59.085121
