20
 generated by VMD
 C         -10.476818      -37.673626       -7.705808
 N         -11.291462      -36.907440       -7.683606
 H         -12.594002      -39.658123       -8.120932
 H         -13.878264      -39.358250       -7.144202
 C         -13.635145      -39.902027       -8.010700
 C         -13.815246      -41.447033       -7.728058
 C         -14.540259      -39.346706       -9.102014
 C         -15.323475      -41.890125       -7.753605
 C         -16.011990      -39.648113       -8.828787
 C         -16.167301      -41.242668       -8.854607
 H         -13.365737      -41.734200       -6.781190
 H         -13.203748      -41.888344       -8.490310
 H         -14.361030      -38.259785       -9.189892
 H         -14.256470      -39.810013      -10.079125
 H         -15.841901      -41.646732       -6.836391
 H         -15.367096      -43.003647       -7.838918
 H         -16.673193      -39.218933       -9.513408
 H         -16.324518      -39.364750       -7.774586
 H         -17.214827      -41.489761       -8.679660
 H         -15.913979      -41.544041       -9.878779
