20
 generated by VMD
 C         -79.482590     -206.624359      -73.487198
 N         -80.457695     -206.121384      -73.155403
 H         -78.036125     -205.059326      -70.875366
 H         -78.585594     -207.039825      -73.919144
 C         -76.999405     -205.300812      -70.579674
 C         -75.910332     -204.305298      -70.945671
 C         -76.689850     -206.662125      -69.953949
 C         -74.588737     -204.463058      -70.238434
 C         -75.499054     -206.568649      -69.048332
 C         -74.313492     -205.988693      -69.865456
 H         -76.322716     -203.338852      -70.814156
 H         -75.772392     -204.406006      -72.038139
 H         -77.464363     -207.228500      -69.457573
 H         -76.425415     -207.311920      -70.807938
 H         -74.803062     -203.842056      -69.336426
 H         -73.772652     -203.967087      -70.907021
 H         -75.171829     -207.497803      -68.646606
 H         -75.860474     -206.020035      -68.219627
 H         -73.390762     -206.048233      -69.285027
 H         -74.196053     -206.686264      -70.752289
