20
 generated by VMD
 C         -28.462797      -74.042671      -18.719227
 N         -29.433594      -73.616402      -18.241310
 H         -25.244520      -72.455284      -18.823742
 H         -27.750328      -74.375450      -19.472265
 C         -25.535337      -72.373985      -19.830889
 C         -24.871122      -73.453270      -20.619787
 C         -25.867035      -71.050056      -20.404148
 C         -25.464323      -73.554138      -22.143604
 C         -26.197823      -71.030914      -21.962446
 C         -25.498997      -72.159088      -22.821815
 H         -24.881340      -74.527939      -20.105570
 H         -23.832672      -73.158165      -20.836317
 H         -26.696066      -70.611725      -19.882662
 H         -24.969671      -70.358025      -20.367985
 H         -26.490509      -73.955093      -21.972265
 H         -24.870262      -74.338600      -22.645563
 H         -25.895908      -69.915878      -22.313084
 H         -27.318922      -71.162895      -22.076136
 H         -25.763090      -72.321312      -23.851917
 H         -24.511297      -71.759735      -22.841860
