20
 generated by VMD
 C          -3.575061      -17.473516        2.091961
 N          -3.135496      -18.460629        2.364418
 H          -5.615193      -20.471220        0.484545
 H          -5.949127      -20.961781       -1.182689
 C          -6.142470      -20.215027       -0.435968
 C          -5.437571      -18.940380       -0.950298
 C          -7.665743      -20.026182       -0.143567
 C          -6.209204      -18.431034       -2.149655
 C          -8.421543      -19.340425       -1.283406
 C          -7.635756      -18.134499       -1.732969
 H          -4.429589      -19.186680       -1.200234
 H          -5.344130      -18.150038       -0.148798
 H          -8.218749      -20.910004        0.176246
 H          -7.754723      -19.439886        0.775465
 H          -6.186941      -19.171057       -2.966041
 H          -5.756831      -17.520283       -2.625859
 H          -9.461099      -19.062685       -1.029108
 H          -8.505395      -20.118790       -2.106177
 H          -8.129180      -17.689899       -2.604646
 H          -7.593659      -17.341890       -1.006770
