20
 generated by VMD
 C         -72.658745     -199.083405      -65.617302
 N         -72.460152     -199.870636      -64.793991
 H         -71.118813     -195.980927      -67.265099
 H         -72.673134     -198.309982      -66.406548
 C         -72.049896     -195.725937      -67.785698
 C         -72.829475     -194.585770      -67.220001
 C         -72.529030     -196.329575      -69.021461
 C         -74.222015     -194.501236      -67.870125
 C         -74.068230     -196.797302      -68.850067
 C         -74.905441     -195.788162      -68.036598
 H         -72.136879     -193.687347      -67.406883
 H         -73.049110     -194.680832      -66.169380
 H         -72.564323     -195.455322      -69.733673
 H         -71.888397     -197.188873      -69.395027
 H         -74.013931     -194.167114      -68.891396
 H         -74.859581     -193.631699      -67.535820
 H         -74.111610     -197.843445      -68.414482
 H         -74.511703     -196.922119      -69.824341
 H         -75.986748     -195.747162      -68.464638
 H         -74.995155     -196.123093      -67.062241
