20
 generated by VMD
 C         -79.140709     -209.234634      -76.901558
 N         -79.008095     -209.887299      -75.923416
 H         -77.805717     -209.663345      -73.284767
 H         -79.270432     -208.584854      -77.811424
 C         -78.072159     -210.549622      -72.716652
 C         -77.204269     -210.957748      -71.645882
 C         -79.304192     -211.371902      -73.021133
 C         -77.929123     -211.489471      -70.475479
 C         -79.937965     -212.041962      -71.827225
 C         -78.980896     -212.580582      -70.801643
 H         -76.533241     -210.089447      -71.460037
 H         -76.642021     -211.796051      -72.039444
 H         -79.984306     -210.762314      -73.552910
 H         -79.113167     -212.235168      -73.664551
 H         -78.463875     -210.610336      -70.049919
 H         -77.300133     -211.779175      -69.618713
 H         -80.592751     -212.795349      -72.146049
 H         -80.477654     -211.192627      -71.343338
 H         -79.587288     -212.953629      -69.923729
 H         -78.445442     -213.437912      -71.234192
