20
 generated by VMD
 C         -70.243645     -183.697617      -66.178650
 N         -69.126709     -183.450958      -66.134796
 H         -68.294624     -184.909592      -63.316158
 H         -71.254639     -183.889755      -66.181503
 C         -68.366112     -184.184631      -62.506691
 C         -68.653351     -184.743256      -61.169552
 C         -68.108322     -182.782303      -62.528442
 C         -67.778343     -184.327118      -60.020741
 C         -66.983467     -182.409363      -61.624126
 C         -67.346542     -182.814560      -60.178185
 H         -68.680450     -185.822586      -61.114883
 H         -69.697502     -184.506287      -60.946335
 H         -67.873947     -182.390747      -63.548782
 H         -69.035667     -182.266220      -62.320076
 H         -66.876411     -184.855011      -60.011627
 H         -68.102142     -184.352356      -59.007767
 H         -66.554451     -181.322006      -61.741920
 H         -66.092735     -182.981903      -62.055744
 H         -66.402718     -182.771667      -59.717014
 H         -68.011314     -182.187744      -59.676495
