20
 generated by VMD
 C         -19.967611      -59.711441      -17.573053
 N         -19.422100      -58.912121      -18.173563
 H         -23.529888      -59.776268      -15.971117
 H         -20.422604      -60.645229      -16.989895
 C         -22.961523      -60.762943      -16.015600
 C         -23.183859      -61.509449      -17.324617
 C         -22.954323      -61.450867      -14.653395
 C         -22.985071      -63.020737      -17.197117
 C         -22.642403      -62.939728      -14.689904
 C         -23.226521      -63.737137      -15.874211
 H         -22.530880      -61.034538      -18.169731
 H         -24.262516      -61.359108      -17.709272
 H         -22.109949      -60.918369      -14.284984
 H         -23.916742      -61.296078      -14.084834
 H         -21.947657      -63.275780      -17.442823
 H         -23.441408      -63.519016      -18.010181
 H         -23.092962      -63.404438      -13.812392
 H         -21.544136      -63.110161      -14.727984
 H         -22.846443      -64.746513      -15.837076
 H         -24.329531      -63.927277      -15.735608
