20
 generated by VMD
 C         -30.809624      -78.016991      -25.278814
 N         -31.597620      -77.222839      -25.163818
 H         -29.314877      -77.034912      -22.429863
 H         -30.171362      -78.888580      -25.031723
 C         -28.836428      -77.969444      -22.572412
 C         -27.423979      -77.967224      -23.139486
 C         -29.284039      -79.036697      -21.659054
 C         -26.384417      -78.986130      -22.568342
 C         -28.201540      -79.802338      -21.023245
 C         -27.037344      -80.287537      -21.952387
 H         -27.002996      -76.910675      -23.252539
 H         -27.520893      -78.164070      -24.245977
 H         -30.088554      -78.718460      -20.962112
 H         -29.896090      -79.727150      -22.338560
 H         -25.864328      -78.433105      -21.785059
 H         -25.699139      -79.396645      -23.363787
 H         -28.627705      -80.691139      -20.613951
 H         -27.729847      -79.070572      -20.287460
 H         -26.315065      -80.801796      -21.423050
 H         -27.422300      -80.859360      -22.824350
