20
 generated by VMD
 C         -50.252518     -127.725296      -40.625511
 N         -51.033035     -128.136139      -41.410255
 H         -47.161892     -127.516563      -41.835361
 H         -49.330357     -127.371315      -40.183151
 C         -46.782387     -126.951927      -40.963661
 C         -45.702877     -127.395157      -40.139156
 C         -46.818405     -125.481689      -41.319363
 C         -44.256699     -126.895432      -40.681705
 C         -45.493237     -124.955399      -41.893723
 C         -44.301979     -125.384552      -40.932083
 H         -45.645317     -128.460846      -40.119995
 H         -45.700424     -127.111771      -39.014011
 H         -47.610970     -125.354073      -42.092228
 H         -47.153206     -124.955261      -40.444599
 H         -44.039978     -127.460251      -41.611126
 H         -43.489716     -127.308105      -40.036224
 H         -45.648163     -123.872787      -42.003120
 H         -45.218658     -125.465973      -42.825249
 H         -43.403912     -125.015350      -41.544804
 H         -44.372940     -124.855370      -39.963947
