20
 generated by VMD
 C         -21.636269      -66.400932      -16.692101
 N         -20.882671      -66.890022      -15.941171
 H         -23.849781      -64.760223      -18.017279
 H         -22.374178      -66.092964      -17.505140
 C         -24.551342      -65.430412      -18.529343
 C         -24.261530      -65.769363      -20.026793
 C         -25.792618      -65.896988      -17.891388
 C         -24.299688      -67.374725      -20.132935
 C         -25.720360      -67.437149      -17.968571
 C         -25.613153      -67.873390      -19.491108
 H         -23.359390      -65.345924      -20.387085
 H         -25.108887      -65.432266      -20.679842
 H         -25.982630      -65.448044      -16.828062
 H         -26.624462      -65.467812      -18.523348
 H         -23.448416      -67.795837      -19.590792
 H         -24.238897      -67.592102      -21.151789
 H         -26.606771      -68.003166      -17.573074
 H         -24.922392      -67.847733      -17.373152
 H         -25.412125      -69.000717      -19.456020
 H         -26.469391      -67.667656      -20.122261
