20
 generated by VMD
 C         -68.977776     -194.035919      -64.479446
 N         -68.428116     -194.049149      -65.505928
 H         -71.223122     -193.986038      -67.783264
 H         -69.624405     -194.095062      -63.604832
 C         -71.932648     -193.355225      -67.284958
 C         -71.549973     -192.114502      -66.505104
 C         -73.343559     -193.948502      -67.270317
 C         -72.647316     -191.466034      -65.675720
 C         -74.315811     -193.023697      -66.661446
 C         -73.741112     -192.422745      -65.370468
 H         -71.160904     -191.391815      -67.388107
 H         -70.754524     -192.362350      -65.898087
 H         -73.640175     -193.967270      -68.401199
 H         -73.458565     -194.938995      -66.749855
 H         -73.004936     -190.687790      -66.262398
 H         -72.221832     -191.006943      -64.777870
 H         -75.228996     -193.632202      -66.512840
 H         -74.639015     -192.191238      -67.319946
 H         -74.557716     -191.789902      -64.780487
 H         -73.416519     -193.153381      -64.740822
