20
 generated by VMD
 C         -40.673626     -100.921013      -32.590298
 N         -41.377350     -101.034241      -31.693184
 H         -38.376602     -102.908989      -32.542191
 H         -40.099163     -100.725227      -33.420280
 C         -37.406128     -102.729378      -32.034359
 C         -36.065006     -102.677605      -32.844662
 C         -37.283894     -102.658775      -30.463247
 C         -35.271534     -101.432793      -32.474998
 C         -36.347931     -101.450958      -30.052029
 C         -35.069412     -101.279633      -30.878817
 H         -36.285011     -102.661133      -33.879543
 H         -35.459820     -103.569595      -32.674240
 H         -38.266289     -102.479050      -29.950665
 H         -37.028217     -103.636124      -30.137377
 H         -35.767590     -100.515106      -32.818039
 H         -34.267883     -101.383682      -32.758083
 H         -36.097683     -101.527840      -28.993746
 H         -36.765076     -100.370964      -30.183092
 H         -34.433147     -100.444160      -30.745047
 H         -34.416538     -102.108109      -30.573029
