20
 generated by VMD
 C         -40.703270     -100.053619      -29.783136
 N         -40.423286     -100.263092      -28.700365
 H         -37.405495      -99.756004      -30.505085
 H         -41.030563     -100.128563      -30.864935
 C         -36.393379      -99.407509      -30.801722
 C         -35.878685      -99.498734      -32.217125
 C         -35.354725      -99.416885      -29.704632
 C         -34.895199      -98.406746      -32.495182
 C         -34.320530      -98.470253      -30.022369
 C         -33.838501      -98.377182      -31.425058
 H         -36.611553      -99.269958      -32.974854
 H         -35.533566     -100.559502      -32.322109
 H         -35.891296      -99.192444      -28.771223
 H         -34.857937     -100.434700      -29.580032
 H         -35.308235      -97.358231      -32.705521
 H         -34.381035      -98.668915      -33.433067
 H         -33.444195      -98.667595      -29.431622
 H         -34.829540      -97.450203      -29.833735
 H         -33.400234      -97.307106      -31.550465
 H         -33.050682      -99.060669      -31.635199
