20
 generated by VMD
 C         -72.638680     -198.725327      -65.637749
 N         -73.651466     -199.057999      -66.094223
 H         -70.929535     -196.273468      -67.461983
 H         -71.765892     -198.345718      -65.121658
 C         -71.950439     -196.140274      -67.782936
 C         -72.875092     -195.213257      -67.036018
 C         -72.472900     -196.842285      -68.966156
 C         -74.298347     -195.159836      -67.648537
 C         -73.878326     -197.272324      -68.979103
 C         -74.896317     -196.606781      -68.057877
 H         -72.538895     -194.136429      -66.858017
 H         -72.809586     -195.484589      -65.987450
 H         -72.461815     -196.073090      -69.771736
 H         -71.773407     -197.524002      -69.465073
 H         -74.334442     -194.466202      -68.483437
 H         -74.842430     -194.764450      -66.757790
 H         -73.931297     -198.377808      -68.749535
 H         -74.295883     -197.201340      -69.971046
 H         -75.868240     -196.374603      -68.597748
 H         -75.147240     -197.111465      -67.086929
