20
 generated by VMD
 C          -2.683553       -9.013060        0.234483
 N          -1.608513       -9.351846        0.034899
 H          -2.322129      -11.840253        2.601679
 H          -3.101716      -12.315139        4.152438
 C          -3.053480      -12.517994        3.046926
 C          -2.697758      -13.927859        2.638181
 C          -4.369898      -12.045093        2.458405
 C          -3.843436      -14.857419        3.059407
 C          -5.517060      -13.016963        2.691261
 C          -5.178693      -14.488071        2.420050
 H          -1.738014      -14.282880        3.155396
 H          -2.571298      -14.008743        1.534841
 H          -4.587052      -11.045258        2.836091
 H          -4.197349      -11.940603        1.430469
 H          -3.968872      -14.719935        4.112620
 H          -3.685136      -15.937682        2.906262
 H          -6.384382      -12.722836        2.011662
 H          -5.875914      -13.016110        3.748835
 H          -5.939013      -15.134364        2.836992
 H          -5.192626      -14.651016        1.347176
