20
 generated by VMD
 C         -47.618412     -137.010605      -46.109898
 N         -47.144474     -136.620438      -47.040363
 H         -50.440098     -136.220596      -44.836559
 H         -48.262352     -137.409943      -45.313053
 C         -51.147549     -137.001602      -44.882084
 C         -51.387615     -137.954620      -46.025291
 C         -52.116196     -136.814331      -43.845264
 C         -52.104408     -139.186035      -45.621574
 C         -52.822620     -138.186188      -43.453484
 C         -53.246429     -138.896713      -44.756023
 H         -50.451321     -138.309402      -46.575211
 H         -52.044544     -137.527313      -46.697830
 H         -51.741455     -136.312698      -42.963432
 H         -52.899971     -136.142136      -44.113514
 H         -51.466393     -139.942245      -45.073326
 H         -52.346485     -139.805023      -46.515911
 H         -53.648891     -137.817688      -42.704865
 H         -52.255363     -138.756058      -42.724125
 H         -53.997540     -139.767029      -44.546024
 H         -53.871788     -138.084488      -45.205261
