20
 generated by VMD
 C         -68.333801     -188.525818      -66.963501
 N         -68.561470     -187.735855      -67.820000
 H         -68.361229     -187.040100      -63.838875
 H         -68.144791     -189.197113      -66.170074
 C         -69.282745     -187.450546      -63.459999
 C         -69.272804     -188.689255      -62.603672
 C         -70.457672     -186.589157      -63.612495
 C         -70.560036     -189.536957      -62.810577
 C         -71.727966     -187.358017      -63.839535
 C         -71.812927     -188.566422      -62.789055
 H         -69.260612     -188.535248      -61.559647
 H         -68.372383     -189.127655      -62.937435
 H         -70.546921     -185.777161      -62.905777
 H         -70.241631     -185.937683      -64.556358
 H         -70.624214     -190.313660      -62.022064
 H         -70.550217     -189.961731      -63.830757
 H         -71.875282     -187.738571      -64.823555
 H         -72.499443     -186.631393      -63.691406
 H         -71.633942     -188.172440      -61.797409
 H         -72.665108     -189.181168      -62.936623
