20
 generated by VMD
 C         -41.032757     -104.105034      -35.881802
 N         -41.890419     -104.855858      -36.065186
 H         -38.439373     -104.017776      -33.675350
 H         -40.486576     -103.195068      -35.704666
 C         -38.247021     -104.803268      -32.870766
 C         -36.866268     -105.249413      -32.363453
 C         -39.239597     -105.962433      -33.090672
 C         -37.021656     -106.220154      -31.268604
 C         -39.240898     -107.059105      -32.011665
 C         -37.809521     -107.462090      -31.547266
 H         -36.332062     -104.352257      -32.058563
 H         -36.310528     -105.688309      -33.246220
 H         -40.316128     -105.562744      -33.192043
 H         -38.985279     -106.418159      -34.028400
 H         -37.501198     -105.653534      -30.439442
 H         -36.090477     -106.760635      -30.987026
 H         -39.531368     -108.057762      -32.454407
 H         -39.920929     -106.996819      -31.112419
 H         -37.728256     -108.127281      -30.711296
 H         -37.354164     -107.996819      -32.453613
