20
 generated by VMD
 C         -22.738987      -53.036961      -12.486104
 N         -22.781258      -52.541569      -13.569410
 H         -20.334469      -54.378353      -14.543529
 H         -22.722425      -53.630894      -11.572661
 C         -19.424692      -54.265583      -13.984313
 C         -19.045675      -52.766090      -13.870904
 C         -18.524296      -55.342438      -13.545278
 C         -17.579395      -52.515495      -13.582245
 C         -17.188459      -54.861126      -12.935616
 C         -16.584562      -53.641716      -13.556916
 H         -19.738285      -52.162785      -13.227427
 H         -19.278824      -52.253147      -14.902047
 H         -19.110422      -55.956905      -12.794966
 H         -18.295053      -56.029583      -14.373703
 H         -17.589724      -52.074001      -12.570604
 H         -17.161673      -51.725521      -14.242359
 H         -16.486191      -55.724609      -13.025059
 H         -17.329884      -54.713253      -11.857337
 H         -15.643935      -53.342781      -13.054980
 H         -16.258854      -53.899242      -14.541836
