20
 generated by VMD
 C         -56.182690     -150.188812      -46.990173
 N         -57.092457     -150.329254      -46.295597
 H         -53.382748     -147.816895      -47.526958
 H         -55.402218     -150.031693      -47.714779
 C         -53.811012     -147.540588      -48.529224
 C         -53.140251     -148.157135      -49.728359
 C         -54.471294     -146.237625      -48.551453
 C         -53.807678     -147.885056      -51.034611
 C         -55.456696     -146.120361      -49.753979
 C         -54.729115     -146.575104      -51.109814
 H         -52.966244     -149.195358      -49.600525
 H         -52.096760     -147.649719      -49.629353
 H         -54.994453     -146.032837      -47.592056
 H         -53.897873     -145.269119      -48.744770
 H         -54.464607     -148.731247      -51.075062
 H         -53.088913     -148.084473      -51.827259
 H         -55.795891     -145.045639      -49.948895
 H         -56.202442     -146.832825      -49.521725
 H         -55.479172     -146.835281      -51.858154
 H         -54.120380     -145.733002      -51.550690
