20
 generated by VMD
 C         -70.240814     -183.021866      -63.861614
 N         -69.802223     -183.166290      -64.902725
 H         -68.640015     -180.031036      -62.250160
 H         -70.609001     -182.863144      -62.903992
 C         -67.758987     -180.357590      -61.606400
 C         -67.770966     -181.820236      -61.373726
 C         -67.028336     -179.403442      -60.735973
 C         -66.462212     -182.391205      -60.941807
 C         -65.539070     -179.917938      -60.496666
 C         -65.649734     -181.408524      -59.991215
 H         -68.137337     -182.182419      -62.376812
 H         -68.684952     -182.149429      -60.785866
 H         -66.893616     -178.464111      -61.258400
 H         -67.396759     -179.299545      -59.708611
 H         -65.910332     -182.646164      -61.813416
 H         -66.751556     -183.256012      -60.307991
 H         -65.145424     -179.272812      -59.679573
 H         -64.904968     -179.963028      -61.403500
 H         -64.593536     -181.699921      -59.879967
 H         -66.174324     -181.407974      -59.007320
