20
 generated by VMD
 C         -79.984802     -205.489182      -72.223015
 N         -80.015663     -206.681534      -72.280159
 H         -77.426529     -204.406723      -71.021454
 H         -79.703781     -204.488373      -72.327263
 C         -76.501953     -204.934494      -71.130806
 C         -75.300316     -204.112915      -71.353088
 C         -76.263481     -206.222351      -70.626549
 C         -74.603569     -203.898834      -69.956230
 C         -75.594368     -206.235611      -69.212524
 C         -74.446045     -205.239212      -69.311096
 H         -75.595802     -203.180725      -71.886520
 H         -74.591217     -204.624329      -72.081261
 H         -77.127396     -206.846405      -70.451691
 H         -75.586342     -206.811188      -71.278435
 H         -75.263275     -203.265182      -69.351501
 H         -73.638832     -203.398819      -70.194344
 H         -75.425865     -207.230133      -68.917435
 H         -76.278336     -205.858078      -68.366379
 H         -74.233192     -205.072418      -68.280251
 H         -73.526222     -205.694534      -69.771568
