20
 generated by VMD
 C         -13.928536      -42.992435       -6.212295
 N         -12.921627      -43.488880       -6.221890
 H         -14.655946      -45.000347       -9.069407
 H         -14.355515      -43.726685      -10.207967
 C         -15.171098      -44.377514       -9.901461
 C         -16.409025      -43.655674       -9.428125
 C         -15.554593      -45.309345      -11.055933
 C         -16.917398      -42.798855      -10.554341
 C         -15.869826      -44.515446      -12.252538
 C         -17.033386      -43.598366      -11.862178
 H         -16.249491      -43.161823       -8.454976
 H         -17.218222      -44.310665       -9.163999
 H         -14.744890      -46.067188      -11.301879
 H         -16.366219      -46.010567      -10.688251
 H         -16.295849      -41.927258      -10.733764
 H         -17.909517      -42.413612      -10.321889
 H         -16.225882      -45.080975      -13.169012
 H         -15.033958      -43.951256      -12.542890
 H         -17.258615      -42.815212      -12.675527
 H         -17.907053      -44.295383      -11.801316
