20
 generated by VMD
 C         -29.158489      -80.388901      -27.006786
 N         -30.020245      -80.189865      -27.717638
 H         -28.154806      -82.875732      -24.516432
 H         -28.473394      -80.484283      -26.103836
 C         -29.164671      -83.076508      -24.090790
 C         -29.455635      -83.033516      -22.522142
 C         -29.977730      -84.048645      -24.929180
 C         -30.946344      -83.255989      -22.212894
 C         -31.394896      -84.076340      -24.489765
 C         -31.638315      -84.245094      -23.001287
 H         -29.004082      -82.110779      -22.051222
 H         -28.786320      -83.840889      -22.058861
 H         -29.915117      -83.853157      -26.053019
 H         -29.584641      -85.072716      -24.795959
 H         -31.431898      -82.257210      -22.295967
 H         -31.131317      -83.348999      -21.071358
 H         -32.077908      -84.903862      -24.872755
 H         -31.951590      -83.185814      -24.723164
 H         -32.748379      -84.171875      -22.817528
 H         -31.261473      -85.258133      -22.589474
