20
 generated by VMD
 C         -78.146027     -203.545090      -69.443520
 N         -78.951958     -204.340897      -69.520424
 H         -75.768356     -202.107986      -67.604546
 H         -77.397789     -202.831726      -69.589096
 C         -74.878815     -201.765335      -68.223961
 C         -75.021072     -200.309845      -68.690903
 C         -73.787544     -202.574844      -68.732796
 C         -74.783539     -200.106873      -70.143364
 C         -72.923264     -201.913574      -69.858231
 C         -73.784363     -200.931732      -70.822746
 H         -74.380791     -199.609482      -68.202209
 H         -76.077919     -199.991180      -68.518417
 H         -73.142097     -202.770569      -67.861961
 H         -74.118439     -203.636688      -69.067543
 H         -74.533096     -199.069870      -70.368576
 H         -75.703514     -200.282684      -70.749153
 H         -72.279442     -202.599625      -70.423210
 H         -72.152573     -201.266769      -69.400284
 H         -73.112793     -200.334061      -71.436523
 H         -74.374596     -201.552124      -71.505104
