20
 generated by VMD
 C         -33.774902      -97.039108      -26.173473
 N         -34.875111      -96.905846      -25.803299
 H         -35.169384      -94.348778      -27.424555
 H         -32.689217      -97.060547      -26.583179
 C         -35.122444      -94.070061      -28.496063
 C         -36.029770      -94.792717      -29.439861
 C         -33.789314      -93.703957      -28.934736
 C         -36.003269      -94.103905      -30.784874
 C         -33.704830      -93.075607      -30.361992
 C         -34.578270      -93.923630      -31.314068
 H         -37.003155      -94.876579      -29.042891
 H         -35.582172      -95.779396      -29.488672
 H         -33.305397      -93.070908      -28.182020
 H         -33.177162      -94.570992      -29.123871
 H         -36.576694      -93.203766      -30.777838
 H         -36.484577      -94.803162      -31.563585
 H         -32.631702      -92.919556      -30.554565
 H         -34.101612      -92.053261      -30.499939
 H         -34.397923      -93.450348      -32.276516
 H         -34.165932      -94.854897      -31.496441
