20
 generated by VMD
 C         -79.238899     -207.218475      -75.677391
 N         -80.209686     -207.055847      -75.122124
 H         -77.509888     -208.690781      -73.321907
 H         -78.467529     -207.348190      -76.361244
 C         -77.237625     -208.809753      -72.283234
 C         -75.997536     -208.214706      -71.567085
 C         -78.014946     -209.887604      -71.513771
 C         -76.192207     -208.007141      -70.020432
 C         -78.279358     -209.535843      -70.086418
 C         -76.917442     -209.134323      -69.426376
 H         -75.792030     -207.187332      -71.919685
 H         -75.127731     -208.850555      -71.858002
 H         -78.913605     -210.100449      -72.100594
 H         -77.405693     -210.790009      -71.667458
 H         -76.915756     -207.161179      -69.841263
 H         -75.301247     -207.726517      -69.431152
 H         -78.630104     -210.475220      -69.536003
 H         -79.090546     -208.801651      -69.964645
 H         -77.185905     -209.193375      -68.403229
 H         -76.215584     -209.964188      -69.629959
