20
 generated by VMD
 C         -30.838142      -78.414749      -25.560921
 N         -31.260048      -77.444992      -25.023069
 H         -29.311583      -77.254913      -22.993666
 H         -30.388788      -79.487335      -25.750822
 C         -28.818594      -78.123779      -22.655987
 C         -27.431921      -78.266335      -23.103899
 C         -29.532961      -79.284599      -22.128973
 C         -26.604551      -79.279068      -22.350538
 C         -28.580708      -80.158165      -21.260162
 C         -27.344734      -80.546249      -22.085342
 H         -26.899446      -77.258553      -23.072687
 H         -27.529810      -78.502457      -24.167280
 H         -30.469534      -79.089119      -21.493090
 H         -29.949049      -79.907921      -22.871143
 H         -26.123966      -78.726311      -21.560778
 H         -25.821581      -79.668053      -22.984985
 H         -28.992689      -81.116425      -20.956663
 H         -28.240189      -79.532143      -20.401443
 H         -26.753962      -81.255226      -21.582521
 H         -27.588257      -80.895683      -23.040693
