20
 generated by VMD
 C         -79.615982     -206.854050      -75.165092
 N         -79.905861     -207.587036      -74.270081
 H         -76.915367     -207.431137      -73.068306
 H         -79.290878     -206.411224      -76.055374
 C         -76.811775     -208.139633      -72.261673
 C         -75.635185     -207.877182      -71.354927
 C         -77.924881     -208.957306      -71.763611
 C         -76.020508     -207.510880      -69.983101
 C         -78.124733     -208.930695      -70.195419
 C         -76.771500     -208.744125      -69.463509
 H         -74.947693     -207.241898      -71.908051
 H         -75.037598     -208.813889      -71.311272
 H         -78.902206     -208.628601      -72.159889
 H         -77.783463     -210.036041      -71.996262
 H         -76.544548     -206.564484      -69.964645
 H         -75.181412     -207.213257      -69.380783
 H         -78.414101     -209.950958      -69.877663
 H         -78.880074     -208.248108      -69.813011
 H         -76.947227     -208.417542      -68.463234
 H         -76.388031     -209.807343      -69.363571
