20
 generated by VMD
 C         -16.061413      -47.652294       -6.893844
 N         -15.941415      -46.544350       -6.733779
 H         -16.865913      -48.047192      -10.119431
 H         -15.422877      -47.789635      -11.140127
 C         -16.421171      -47.488018      -10.944289
 C         -16.419794      -45.951900      -10.643069
 C         -17.265852      -47.672272      -12.148562
 C         -16.016691      -45.049828      -11.795984
 C         -16.925215      -46.678360      -13.296900
 C         -16.918213      -45.178574      -12.993670
 H         -15.862809      -45.693516       -9.728496
 H         -17.456314      -45.639370      -10.352010
 H         -17.197523      -48.713852      -12.532735
 H         -18.307482      -47.573723      -11.891171
 H         -15.009200      -45.357758      -12.046539
 H         -15.931122      -44.015938      -11.453384
 H         -17.806387      -46.746113      -14.048487
 H         -16.011772      -47.118095      -13.686797
 H         -16.555159      -44.583008      -13.861469
 H         -17.908377      -44.827969      -12.669552
