20
 generated by VMD
 C         -54.785389     -148.357452      -45.210991
 N         -54.511230     -148.583878      -44.078056
 H         -54.510376     -148.079819      -49.022064
 H         -55.197948     -148.264557      -46.188560
 C         -54.461021     -147.067947      -49.380566
 C         -53.230606     -146.822250      -50.022690
 C         -54.970863     -145.933899      -48.580223
 C         -53.329044     -145.554703      -50.877796
 C         -55.090130     -144.719772      -49.359943
 C         -53.846085     -144.361511      -50.079872
 H         -53.171928     -147.657623      -50.656513
 H         -52.343285     -146.712479      -49.342651
 H         -55.917145     -146.237946      -48.243439
 H         -54.335747     -145.845566      -47.690041
 H         -53.871113     -145.798676      -51.786804
 H         -52.339371     -145.369003      -51.243027
 H         -55.517174     -143.843384      -48.785931
 H         -55.787846     -144.874924      -50.143604
 H         -53.885750     -143.435684      -50.765594
 H         -53.105087     -143.836899      -49.387520
