20
 generated by VMD
 C         -68.441185     -192.858383      -66.219994
 N         -68.420303     -193.237976      -67.299881
 H         -70.044052     -189.638580      -65.403519
 H         -68.338463     -192.637772      -65.113739
 C         -70.936920     -190.257446      -65.250992
 C         -71.588181     -190.938126      -66.449852
 C         -71.527275     -190.493408      -63.897198
 C         -72.599998     -191.964905      -66.067215
 C         -73.128090     -190.527390      -63.986732
 C         -73.607361     -191.625458      -65.011261
 H         -70.824364     -191.406982      -67.146851
 H         -72.186554     -190.207153      -67.023857
 H         -71.229660     -191.436554      -63.456417
 H         -71.111259     -189.722397      -63.190308
 H         -72.088745     -192.751450      -65.571365
 H         -73.160072     -192.325119      -66.907280
 H         -73.479454     -189.489990      -64.294273
 H         -73.584679     -190.758270      -62.975983
 H         -73.922104     -192.528030      -64.504028
 H         -74.630112     -191.187653      -65.400185
