20
 generated by VMD
 C         -12.131330      -31.453051       -8.926448
 N         -12.837367      -31.957314       -9.655759
 H         -10.464267      -34.403316       -6.822092
 H         -11.483445      -33.895729       -5.412390
 C         -11.179652      -34.786171       -6.048196
 C         -10.502559      -35.874687       -5.158586
 C         -12.438566      -35.237923       -6.727176
 C         -11.513699      -36.352829       -4.083088
 C         -13.405769      -35.819386       -5.742525
 C         -12.793684      -36.832893       -4.801686
 H          -9.609148      -35.405418       -4.678546
 H         -10.259923      -36.641586       -5.898772
 H         -12.911016      -34.363602       -7.203037
 H         -12.119089      -35.978451       -7.478559
 H         -11.865478      -35.481373       -3.487648
 H         -11.057577      -37.171406       -3.497355
 H         -14.274818      -36.220371       -6.177462
 H         -13.620107      -34.925102       -5.050185
 H         -13.529384      -37.247826       -4.069437
 H         -12.537870      -37.672981       -5.399671
