20
 generated by VMD
 C         -27.674498      -72.678841      -17.961210
 N         -28.060251      -73.520454      -17.285772
 H         -24.664001      -70.745880      -18.702126
 H         -27.262760      -72.037170      -18.646366
 C         -25.061380      -71.010422      -19.731352
 C         -24.410381      -72.131821      -20.451242
 C         -25.668489      -69.920990      -20.554514
 C         -25.320606      -72.535393      -21.553623
 C         -26.552231      -70.455185      -21.790640
 C         -25.606417      -71.443588      -22.550940
 H         -24.271856      -73.085632      -19.739697
 H         -23.391415      -71.859863      -20.886700
 H         -26.307701      -69.309807      -19.853804
 H         -24.871172      -69.244324      -20.889677
 H         -26.271008      -73.018677      -21.183769
 H         -24.867924      -73.372871      -22.144684
 H         -26.997837      -69.650879      -22.442060
 H         -27.517426      -70.781395      -21.322443
 H         -26.212452      -71.888458      -23.356770
 H         -24.657209      -71.013580      -22.952705
