20
 generated by VMD
 C         -67.579582     -192.666016      -66.877357
 N         -68.734673     -192.734070      -66.935394
 H         -69.833069     -189.799500      -65.338966
 H         -66.471031     -192.711426      -66.703690
 C         -70.852486     -190.135391      -65.139275
 C         -71.556244     -190.868591      -66.272629
 C         -71.625694     -189.921997      -63.864735
 C         -72.509674     -191.949524      -65.681862
 C         -73.139328     -190.052948      -64.052353
 C         -73.500839     -191.515259      -64.545341
 H         -70.911018     -191.396164      -66.937775
 H         -72.052208     -190.145020      -66.850479
 H         -71.314659     -190.694275      -63.205711
 H         -71.535179     -188.931305      -63.467972
 H         -72.026085     -192.848679      -65.275566
 H         -73.069252     -192.348740      -66.508293
 H         -73.661713     -189.338531      -64.695137
 H         -73.597404     -189.907227      -63.077251
 H         -73.381821     -192.298187      -63.874096
 H         -74.620827     -191.566101      -65.036621
