20
 generated by VMD
 C          -6.976987      -23.332836        2.407788
 N          -7.124589      -22.442255        1.776184
 H          -8.311378      -23.152521       -0.827173
 H          -9.244837      -22.460903       -2.130371
 C          -8.250043      -22.591566       -1.751566
 C          -7.340204      -23.273027       -2.748506
 C          -7.651254      -21.223871       -1.269636
 C          -7.029121      -22.405397       -3.960716
 C          -7.332244      -20.287840       -2.480390
 C          -6.363724      -21.042221       -3.524294
 H          -7.819990      -24.141060       -3.057855
 H          -6.432108      -23.666832       -2.245651
 H          -8.336429      -20.741070       -0.591257
 H          -6.704076      -21.402588       -0.735259
 H          -7.955138      -22.196796       -4.501148
 H          -6.450608      -22.898920       -4.735580
 H          -6.896437      -19.359772       -2.143654
 H          -8.214584      -20.051653       -3.043963
 H          -6.116849      -20.387280       -4.325172
 H          -5.443946      -21.313293       -3.054784
