20
 generated by VMD
 C         -22.441666      -54.994114      -15.706450
 N         -23.431795      -55.290039      -16.170040
 H         -19.019056      -54.694363      -15.427616
 H         -21.667902      -54.428944      -15.495301
 C         -19.463745      -55.550716      -14.875397
 C         -19.252403      -55.346462      -13.242408
 C         -19.109921      -56.860954      -15.487162
 C         -19.699884      -56.639725      -12.526792
 C         -19.543411      -57.992344      -14.631361
 C         -19.054483      -57.848816      -13.200959
 H         -19.842251      -54.526810      -12.839820
 H         -18.154882      -55.250904      -13.111730
 H         -19.536993      -57.001907      -16.475267
 H         -17.955557      -56.897091      -15.470761
 H         -20.795139      -56.750015      -12.572362
 H         -19.468884      -56.670380      -11.460418
 H         -19.303972      -58.959095      -15.166789
 H         -20.617496      -57.913498      -14.541332
 H         -19.382437      -58.752705      -12.680976
 H         -17.946299      -57.813461      -13.100842
