20
 generated by VMD
 C         -72.253899     -199.262726      -65.046349
 N         -71.106415     -199.189423      -64.936844
 H         -71.842140     -196.353485      -66.687897
 H         -73.314156     -199.364349      -64.975021
 C         -72.573257     -195.866852      -67.337585
 C         -72.891678     -194.519287      -67.011902
 C         -72.881844     -196.494003      -68.590805
 C         -73.824661     -193.852264      -68.012581
 C         -74.334930     -196.142899      -69.018013
 C         -74.874275     -194.869720      -68.346230
 H         -71.950569     -193.971725      -67.025368
 H         -73.140419     -194.421234      -65.871735
 H         -72.110229     -196.098572      -69.275436
 H         -72.723885     -197.579788      -68.580154
 H         -73.456078     -193.431442      -68.925995
 H         -74.279938     -193.064545      -67.466110
 H         -74.954483     -197.004211      -68.764893
 H         -74.512917     -196.015610      -70.110016
 H         -75.695320     -194.495605      -69.049408
 H         -75.556770     -195.154953      -67.475365
