20
 generated by VMD
 C         -74.912048     -201.811752      -66.554047
 N         -74.661781     -201.364746      -65.523560
 H         -76.357948     -199.140945      -69.039131
 H         -75.356728     -202.232788      -67.393814
 C         -75.312752     -198.780930      -68.987633
 C         -75.012688     -197.497070      -68.319214
 C         -74.256050     -199.402069      -69.811195
 C         -73.508888     -197.426910      -68.022568
 C         -73.271919     -198.369232      -70.398918
 C         -72.559517     -197.835037      -69.125053
 H         -75.523705     -197.534363      -67.404381
 H         -75.282745     -196.655243      -68.891762
 H         -73.785362     -200.197128      -69.256790
 H         -74.761932     -200.015091      -70.590096
 H         -73.219429     -197.972519      -67.160278
 H         -73.118515     -196.443863      -67.675667
 H         -73.769508     -197.612289      -70.949997
 H         -72.518822     -198.853882      -70.982468
 H         -71.973251     -198.553635      -68.721947
 H         -71.904388     -197.080582      -69.678154
