20
 generated by VMD
 C         -19.987013      -59.438160      -17.444540
 N         -19.346138      -58.876904      -18.232037
 H         -22.639402      -59.765350      -16.115541
 H         -20.470528      -59.741306      -16.561296
 C         -22.929678      -60.774647      -16.070652
 C         -23.409189      -61.595589      -17.257393
 C         -22.753286      -61.418003      -14.722607
 C         -22.889723      -63.032337      -17.129662
 C         -22.519827      -62.921478      -14.746940
 C         -23.353752      -63.586395      -15.785409
 H         -23.192757      -61.090641      -18.175186
 H         -24.504326      -61.633873      -17.354168
 H         -22.083429      -60.775902      -14.118081
 H         -23.697454      -61.301571      -14.195930
 H         -21.770205      -63.081173      -17.137735
 H         -23.292683      -63.663418      -17.972672
 H         -22.877169      -63.341412      -13.820104
 H         -21.503754      -63.251022      -14.776604
 H         -23.240797      -64.691269      -15.772045
 H         -24.395733      -63.434532      -15.698505
