20
 generated by VMD
 C          -1.729861      -12.995263        0.576746
 N          -1.166665      -13.883089        0.934276
 H          -3.690852      -14.773135        1.822944
 H          -4.440461      -14.669136        0.227033
 C          -4.523561      -15.149503        1.194604
 C          -5.836853      -14.790302        1.909050
 C          -4.434985      -16.626299        0.962392
 C          -7.080372      -15.254816        1.248396
 C          -5.685689      -17.173817        0.182611
 C          -6.988142      -16.747303        0.977331
 H          -5.800539      -13.728008        2.185997
 H          -5.756134      -15.246314        2.970504
 H          -3.528130      -16.876564        0.494086
 H          -4.516004      -17.079416        1.935349
 H          -7.305707      -14.675197        0.370323
 H          -7.938450      -15.114141        1.882790
 H          -5.614163      -18.239698        0.090457
 H          -5.644102      -16.760210       -0.803163
 H          -7.860738      -16.956236        0.313101
 H          -7.202197      -17.288488        1.898098
