20
 generated by VMD
 C         -45.202076     -123.005569      -35.405838
 N         -45.643665     -124.038521      -35.189461
 H         -44.950466     -122.255692      -38.205769
 H         -44.709835     -122.036926      -35.731812
 C         -44.849491     -121.629021      -39.144421
 C         -43.434933     -121.375015      -39.656933
 C         -45.925694     -120.746559      -39.554401
 C         -43.429306     -120.794601      -41.009144
 C         -45.736362     -120.133957      -40.952133
 C         -44.329914     -119.574341      -41.084930
 H         -42.711250     -122.242981      -39.702652
 H         -43.000282     -120.724632      -38.848217
 H         -46.830467     -121.412170      -39.537167
 H         -46.119129     -120.007446      -38.737034
 H         -43.759445     -121.570747      -41.763607
 H         -42.438377     -120.625862      -41.348450
 H         -46.596107     -119.405083      -41.077866
 H         -46.064892     -120.793877      -41.738575
 H         -44.347893     -119.150749      -42.078552
 H         -44.213055     -118.794830      -40.262074
