20
 generated by VMD
 C         -77.687050     -203.100647      -69.522057
 N         -78.097198     -203.992676      -68.888824
 H         -75.587608     -202.104431      -67.632942
 H         -77.204063     -202.368286      -70.230087
 C         -74.862419     -201.528625      -68.172287
 C         -75.128365     -200.117645      -68.589233
 C         -73.860184     -202.498718      -68.825043
 C         -74.785469     -199.725876      -69.940659
 C         -73.052666     -201.774673      -69.953140
 C         -73.995590     -200.756134      -70.791573
 H         -74.658417     -199.413071      -67.865891
 H         -76.211136     -199.886429      -68.515404
 H         -73.147446     -202.867188      -67.989639
 H         -74.378090     -203.466812      -69.193123
 H         -74.178154     -198.845795      -70.068619
 H         -75.713638     -199.651993      -70.484764
 H         -72.684967     -202.494141      -70.682991
 H         -72.281075     -201.218811      -69.396660
 H         -73.466316     -200.230698      -71.620995
 H         -74.811958     -201.400284      -71.244385
