20
 generated by VMD
 C          -5.944380      -20.945621        1.923850
 N          -6.025058      -22.069805        1.889887
 H          -4.977014      -18.705675       -1.031675
 H          -5.829192      -20.090107       -0.241356
 C          -5.798986      -19.480812       -1.134749
 C          -5.489886      -20.463192       -2.228748
 C          -7.142357      -18.733006       -1.362158
 C          -6.586526      -21.487709       -2.354861
 C          -8.265517      -19.777470       -1.402682
 C          -8.007955      -20.970343       -2.303652
 H          -4.595256      -20.951849       -1.972086
 H          -5.424014      -19.983698       -3.224590
 H          -7.310861      -18.092186       -0.468397
 H          -7.099545      -18.162580       -2.382618
 H          -6.494801      -22.137846       -1.502675
 H          -6.350754      -22.065474       -3.217828
 H          -9.208262      -19.334038       -1.697060
 H          -8.401290      -20.152802       -0.384075
 H          -8.643013      -21.813936       -2.023171
 H          -8.239514      -20.549633       -3.265319
