20
 generated by VMD
 C         -33.608032      -96.465561      -25.682558
 N         -34.545746      -96.514153      -26.385900
 H         -35.038845      -94.214195      -27.333996
 H         -32.798615      -96.186707      -25.062128
 C         -34.929810      -94.167877      -28.391239
 C         -35.900539      -94.770760      -29.323250
 C         -33.604145      -93.848068      -28.962103
 C         -36.051762      -93.851067      -30.567829
 C         -33.768494      -93.016754      -30.205669
 C         -34.785664      -93.534332      -31.265009
 H         -36.826675      -94.725136      -28.717224
 H         -35.692791      -95.765945      -29.602396
 H         -32.933079      -93.325600      -28.293503
 H         -33.211792      -94.814407      -29.106588
 H         -36.614624      -92.884560      -30.321127
 H         -36.741199      -94.325729      -31.250511
 H         -32.844868      -92.678787      -30.807985
 H         -34.104500      -92.056183      -29.854877
 H         -35.043053      -92.643585      -32.082966
 H         -34.283413      -94.347977      -31.737127
