20
 generated by VMD
 C         -70.244087     -183.026352      -64.203598
 N         -70.143784     -183.428528      -65.278564
 H         -68.283508     -180.201630      -62.574192
 H         -70.352921     -182.626617      -63.242367
 C         -67.707832     -180.623276      -61.695591
 C         -67.862106     -181.987671      -61.284142
 C         -66.909592     -179.571869      -61.034866
 C         -66.486694     -182.546265      -60.790558
 C         -65.693642     -180.157837      -60.354130
 C         -65.822693     -181.578674      -59.766911
 H         -68.172501     -182.547989      -62.151840
 H         -68.486794     -182.038513      -60.498310
 H         -66.702782     -178.869644      -61.947556
 H         -67.570648     -179.110718      -60.324211
 H         -65.761215     -182.542358      -61.774837
 H         -66.444427     -183.569824      -60.344200
 H         -65.282333     -179.436493      -59.613182
 H         -64.936745     -180.308853      -61.116135
 H         -64.783844     -182.017227      -59.525303
 H         -66.333305     -181.705154      -58.886448
