20
 generated by VMD
 C          -8.184379      -23.556751        2.123526
 N          -7.757703      -23.659536        3.156290
 H          -8.975080      -23.438713       -1.495577
 H          -9.519960      -22.600126       -2.846717
 C          -8.556951      -22.937077       -2.388541
 C          -7.761626      -23.838249       -3.341825
 C          -7.685829      -21.761982       -1.820960
 C          -7.054149      -23.006235       -4.442748
 C          -6.977141      -20.941679       -2.919523
 C          -6.093689      -21.862041       -3.827940
 H          -8.444463      -24.661371       -3.823246
 H          -7.041057      -24.423170       -2.756545
 H          -8.364970      -21.021290       -1.353773
 H          -6.938104      -22.147913       -1.117070
 H          -7.873970      -22.479393       -4.970899
 H          -6.465111      -23.666819       -5.069208
 H          -6.377683      -20.192904       -2.370085
 H          -7.759933      -20.493420       -3.545471
 H          -5.637125      -21.251928       -4.645052
 H          -5.336292      -22.426952       -3.273298
