20
 generated by VMD
 C         -38.764282     -112.453674      -35.787300
 N         -38.390896     -111.866333      -36.684185
 H         -41.362759     -115.166740      -34.941319
 H         -39.358681     -112.774010      -34.905819
 C         -41.570724     -114.316513      -35.504574
 C         -41.775616     -114.260948      -37.006824
 C         -42.453152     -113.275673      -34.666393
 C         -43.257111     -114.720161      -37.281105
 C         -43.889580     -113.534813      -35.017197
 C         -44.243782     -113.600555      -36.499985
 H         -40.977329     -114.892197      -37.582600
 H         -41.724606     -113.155594      -37.360058
 H         -42.142876     -113.503433      -33.669289
 H         -42.190388     -112.278076      -34.943752
 H         -43.591354     -115.687286      -36.912041
 H         -43.430294     -114.610764      -38.385811
 H         -44.484238     -112.646797      -34.518612
 H         -44.248001     -114.338814      -34.313480
 H         -45.232105     -113.877472      -36.737888
 H         -44.134853     -112.614929      -37.045906
