20
 generated by VMD
 C         -58.312611     -167.252655      -55.683903
 N         -57.445175     -167.753143      -55.020988
 H         -61.249989     -166.273453      -54.921032
 H         -59.154610     -166.706406      -56.092716
 C         -61.714909     -165.911850      -55.807816
 C         -62.095600     -166.971832      -56.994286
 C         -62.673199     -164.750900      -55.691200
 C         -63.519676     -167.384949      -56.886547
 C         -64.163193     -165.276428      -55.465054
 C         -64.429451     -166.132675      -56.696503
 H         -61.240963     -167.841370      -57.076817
 H         -61.862724     -166.424683      -57.938545
 H         -62.441360     -164.055161      -54.906651
 H         -62.585545     -164.166977      -56.687725
 H         -63.720112     -167.977402      -55.932732
 H         -63.942577     -167.908157      -57.774715
 H         -64.731606     -164.365173      -55.288734
 H         -64.101646     -165.711395      -54.398418
 H         -65.479507     -166.314789      -56.676857
 H         -64.391998     -165.583725      -57.601719
