20
 generated by VMD
 C         -29.698843      -91.091919      -25.254526
 N         -28.992144      -91.991905      -24.982597
 H         -32.215603      -90.398933      -26.882887
 H         -30.491663      -90.370979      -25.504465
 C         -33.097168      -90.525444      -27.504036
 C         -34.283325      -91.498619      -27.469444
 C         -33.093216      -89.618942      -28.688545
 C         -35.585373      -90.812431      -27.487156
 C         -34.501404      -88.923332      -28.705057
 C         -35.610569      -89.915802      -28.772821
 H         -34.123203      -91.952126      -26.540092
 H         -34.183506      -92.179352      -28.352074
 H         -32.327553      -88.837860      -28.580637
 H         -33.000828      -90.267059      -29.559841
 H         -35.864227      -90.144402      -26.555302
 H         -36.407944      -91.603981      -27.568897
 H         -34.716293      -88.205505      -29.520540
 H         -34.670334      -88.306244      -27.767645
 H         -36.497284      -89.228500      -28.693554
 H         -35.651573      -90.595360      -29.672037
