20
 generated by VMD
 C         -40.812767     -103.952530      -37.097710
 N         -40.848892     -104.821861      -36.319942
 H         -39.519314     -105.602135      -33.959595
 H         -40.982334     -103.001732      -37.635498
 C         -39.283760     -106.393776      -33.261539
 C         -37.902931     -106.114647      -32.810444
 C         -39.616684     -107.830612      -33.406483
 C         -37.752918     -106.848900      -31.479507
 C         -39.570946     -108.505295      -31.975111
 C         -38.203194     -108.297981      -31.482229
 H         -37.776783     -105.025742      -32.635090
 H         -37.088100     -106.495850      -33.544949
 H         -40.574768     -107.966019      -33.844002
 H         -38.998425     -108.465256      -33.988873
 H         -38.352657     -106.136688      -30.852081
 H         -36.671799     -106.761848      -31.192307
 H         -39.916046     -109.574219      -31.803925
 H         -40.174408     -107.982262      -31.241192
 H         -38.240261     -108.555702      -30.456045
 H         -37.422184     -109.004349      -31.963650
