20
 generated by VMD
 C         -68.939789     -184.700089      -66.348427
 N         -69.532364     -185.452179      -66.979263
 H         -69.792923     -183.069962      -63.569561
 H         -68.358704     -184.021439      -65.668205
 C         -69.154915     -183.521194      -62.759239
 C         -69.842163     -184.744705      -62.096016
 C         -68.116348     -182.840424      -61.906879
 C         -68.945099     -185.624817      -61.259655
 C         -67.021576     -183.814865      -61.264923
 C         -67.771866     -184.952515      -60.523720
 H         -70.175552     -185.294785      -63.039284
 H         -70.765732     -184.445465      -61.555435
 H         -67.646721     -182.114914      -62.522449
 H         -68.556877     -182.373566      -61.012341
 H         -68.536209     -186.390778      -61.960033
 H         -69.595749     -186.171753      -60.557434
 H         -66.418015     -183.321884      -60.538685
 H         -66.343361     -184.140915      -62.047100
 H         -67.001274     -185.698608      -60.112820
 H         -68.123398     -184.493713      -59.644997
