20
 generated by VMD
 C         -59.970131     -152.426865      -51.014957
 N         -60.838860     -153.000565      -51.442657
 H         -56.772369     -152.451004      -48.844490
 H         -59.148594     -151.928757      -50.619743
 C         -56.037361     -152.070435      -49.560722
 C         -54.666302     -152.652344      -49.579422
 C         -56.133942     -150.559616      -49.683239
 C         -53.922100     -152.316071      -50.888187
 C         -55.230335     -150.213028      -50.813808
 C         -53.896042     -150.853928      -51.019829
 H         -54.691429     -153.740677      -49.332336
 H         -54.052635     -152.299637      -48.795055
 H         -57.201477     -150.341522      -49.971889
 H         -55.866463     -150.175293      -48.653008
 H         -54.155018     -152.950150      -51.727341
 H         -52.849773     -152.632050      -50.691174
 H         -55.055767     -149.148834      -50.888363
 H         -55.822163     -150.631943      -51.764069
 H         -53.710476     -150.686935      -52.115189
 H         -52.954960     -150.370392      -50.590588
