20
 generated by VMD
 C         -31.047527      -74.815140      -22.126358
 N         -31.321976      -75.910461      -21.712702
 H         -28.727863      -76.633438      -21.317589
 H         -30.990108      -73.746140      -22.265182
 C         -27.652834      -76.457802      -21.251787
 C         -26.716532      -77.417404      -22.024418
 C         -27.155024      -75.226227      -20.599985
 C         -25.821428      -76.574203      -22.921944
 C         -26.102381      -74.498329      -21.616339
 C         -25.058786      -75.480507      -22.178167
 H         -27.275322      -78.257408      -22.560894
 H         -26.198780      -77.909798      -21.211451
 H         -27.931633      -74.606209      -20.440762
 H         -26.745522      -75.505676      -19.646036
 H         -26.375961      -76.175041      -23.795998
 H         -24.993839      -77.177002      -23.351980
 H         -25.677359      -73.677521      -21.008583
 H         -26.644924      -73.907867      -22.360222
 H         -24.538006      -74.964775      -22.996033
 H         -24.320841      -75.789597      -21.474941
