20
 generated by VMD
 C         -20.004736      -56.217052      -16.790295
 N         -21.025860      -56.400475      -16.327284
 H         -22.139788      -59.447628      -17.557421
 H         -19.123341      -56.037460      -17.220221
 C         -22.524788      -60.201359      -16.658178
 C         -22.792152      -59.593594      -15.295781
 C         -21.938807      -61.629944      -16.649765
 C         -21.507797      -59.734108      -14.413260
 C         -20.814533      -61.913509      -15.484061
 C         -21.255831      -61.209408      -14.162085
 H         -23.692205      -60.072792      -14.858465
 H         -23.102240      -58.498222      -15.341310
 H         -22.734623      -62.379868      -16.764101
 H         -21.371010      -61.802071      -17.573257
 H         -21.672001      -59.310310      -13.424773
 H         -20.641235      -59.257523      -14.958514
 H         -19.792643      -61.570881      -15.711807
 H         -20.684017      -62.995510      -15.389886
 H         -22.096640      -61.733688      -13.719625
 H         -20.389599      -61.303478      -13.504992
