20
 generated by VMD
 C         -70.062172     -184.083847      -65.954529
 N         -69.011696     -183.833923      -66.426666
 H         -69.286537     -184.310699      -63.468533
 H         -71.012894     -184.203842      -65.554543
 C         -68.786858     -183.901260      -62.557259
 C         -69.025536     -184.643219      -61.292953
 C         -67.974289     -182.694107      -62.530785
 C         -67.845139     -184.742661      -60.429832
 C         -66.952850     -182.512253      -61.448410
 C         -67.411346     -183.247498      -60.174587
 H         -69.304741     -185.694748      -61.553673
 H         -69.837105     -184.178467      -60.731491
 H         -67.477211     -182.629364      -63.519428
 H         -68.701500     -181.805710      -62.501549
 H         -66.957321     -185.163467      -61.025509
 H         -67.840416     -185.297043      -59.468620
 H         -66.761574     -181.433670      -61.198566
 H         -66.062103     -182.995407      -61.776123
 H         -66.544350     -183.352386      -59.562721
 H         -68.283051     -182.708496      -59.533840
