20
 generated by VMD
 C         -61.058899     -154.987762      -53.431736
 N         -61.281597     -154.549072      -52.330593
 H         -58.072639     -154.362457      -52.477970
 H         -60.953876     -155.425003      -54.407818
 C         -57.150242     -154.408188      -51.892227
 C         -57.456345     -154.171967      -50.436146
 C         -55.844631     -153.910797      -52.526302
 C         -56.210171     -154.542816      -49.619049
 C         -54.604362     -154.337479      -51.601742
 C         -54.850273     -153.930878      -50.123806
 H         -58.323841     -154.800995      -50.261112
 H         -57.690193     -153.146286      -50.060524
 H         -55.687428     -154.407593      -53.496304
 H         -55.823765     -152.805145      -52.592350
 H         -56.097240     -155.694366      -49.769138
 H         -56.618408     -154.345383      -48.604847
 H         -53.700542     -153.912720      -51.987572
 H         -54.495392     -155.494629      -51.629623
 H         -54.034477     -154.259598      -49.526958
 H         -54.933544     -152.829086      -49.999489
