20
 generated by VMD
 C         -20.627333      -64.582855      -17.160107
 N         -20.149263      -65.049248      -16.213602
 H         -23.971649      -63.553173      -17.689075
 H         -21.269436      -64.295555      -18.119389
 C         -24.566916      -64.468826      -17.969326
 C         -24.655029      -64.885757      -19.411638
 C         -24.975468      -65.442818      -16.978436
 C         -24.498383      -66.380211      -19.727564
 C         -24.714428      -66.849144      -17.386318
 C         -25.468504      -67.133942      -18.766785
 H         -23.829376      -64.381645      -20.063299
 H         -25.644407      -64.545631      -19.671883
 H         -24.446106      -65.148712      -16.022060
 H         -26.039173      -65.245422      -16.713341
 H         -23.512545      -66.759834      -19.501509
 H         -24.712753      -66.546135      -20.777533
 H         -25.047176      -67.490997      -16.574356
 H         -23.648531      -66.978340      -17.446196
 H         -25.572451      -68.215942      -19.030296
 H         -26.464552      -66.759941      -18.898039
