20
 generated by VMD
 C         -61.117310     -155.590622      -54.910374
 N         -60.957012     -156.103287      -53.843056
 H         -59.118320     -155.192215      -51.710251
 H         -61.424461     -155.236771      -55.911491
 C         -58.049797     -155.282516      -51.519943
 C         -57.419201     -154.563736      -50.424622
 C         -57.144939     -155.797836      -52.597889
 C         -56.316650     -155.136978      -49.753532
 C         -55.884861     -156.434280      -51.842991
 C         -55.249275     -155.579605      -50.747005
 H         -58.216343     -154.485184      -49.575893
 H         -57.143398     -153.514404      -50.764542
 H         -57.529221     -156.702240      -53.120712
 H         -56.818550     -155.029785      -53.244713
 H         -56.617435     -155.910110      -49.061077
 H         -55.819500     -154.441147      -49.005760
 H         -54.971401     -156.774261      -52.471992
 H         -56.275589     -157.398300      -51.481667
 H         -54.377552     -156.200638      -50.358727
 H         -54.862724     -154.748596      -51.223942
