20
 generated by VMD
 C         -38.693188     -111.794380      -35.950375
 N         -38.474125     -111.170074      -36.886986
 H         -40.625748     -114.720886      -34.912106
 H         -39.032257     -112.121269      -35.001820
 C         -41.562382     -114.425743      -35.321331
 C         -41.758133     -114.370590      -36.818295
 C         -42.199116     -113.351532      -34.475685
 C         -43.306355     -114.428802      -37.060795
 C         -43.700737     -113.156624      -34.761906
 C         -43.906662     -113.178841      -36.384243
 H         -41.352459     -115.204811      -37.298729
 H         -41.411861     -113.572479      -37.442020
 H         -42.124973     -113.598053      -33.408646
 H         -41.692795     -112.372124      -34.508934
 H         -43.699913     -115.327431      -36.654495
 H         -43.424126     -114.513550      -38.143948
 H         -44.248997     -112.277428      -34.286488
 H         -44.190716     -114.041054      -34.245647
 H         -45.066116     -113.310959      -36.591816
 H         -43.628307     -112.185226      -36.734329
