20
 generated by VMD
 C         -50.625504     -129.101974      -44.299881
 N         -50.945290     -130.254852      -44.360039
 H         -49.098274     -128.128326      -41.460293
 H         -50.440083     -128.042480      -44.068722
 C         -48.134205     -128.450439      -41.161476
 C         -47.816513     -129.958649      -41.093311
 C         -47.010296     -127.379128      -40.759159
 C         -46.374340     -130.330261      -41.496933
 C         -45.725670     -127.802345      -41.420406
 C         -45.412102     -129.256729      -41.018364
 H         -48.465305     -130.604477      -41.596439
 H         -47.946129     -130.276657      -39.978333
 H         -47.281082     -126.318100      -41.190487
 H         -46.791538     -127.324234      -39.696369
 H         -46.306408     -130.333008      -42.565773
 H         -46.253269     -131.327362      -41.082664
 H         -44.820198     -127.262032      -41.106174
 H         -45.557171     -127.907578      -42.515388
 H         -44.383572     -129.538864      -41.342472
 H         -45.249260     -129.268021      -39.905701
