20
 generated by VMD
 C         -40.608063     -100.916321      -32.527527
 N         -41.300938     -100.989464      -31.605927
 H         -38.062107     -103.577660      -31.985285
 H         -39.966850     -100.953896      -33.334167
 C         -37.360252     -102.726509      -31.985945
 C         -36.166672     -102.508972      -32.737362
 C         -37.245529     -102.591492      -30.522984
 C         -35.193405     -101.391037      -32.427349
 C         -36.460804     -101.386818      -30.209566
 C         -35.056694     -101.293541      -30.901583
 H         -36.494480     -102.403259      -33.811283
 H         -35.611904     -103.466537      -32.709797
 H         -38.206692     -102.643547      -30.117121
 H         -36.716812     -103.467949      -30.073215
 H         -35.669800     -100.422852      -32.788136
 H         -34.099602     -101.484093      -32.935787
 H         -36.242397     -101.337807      -29.081882
 H         -36.943512     -100.415306      -30.409876
 H         -34.629204     -100.289993      -30.737103
 H         -34.318779     -102.058838      -30.542759
