20
 generated by VMD
 C         -48.653385     -133.343887      -47.265575
 N         -48.151768     -133.224625      -48.248238
 H         -48.854618     -134.316879      -44.052319
 H         -48.924271     -133.173782      -46.266056
 C         -49.704529     -134.900665      -43.798611
 C         -50.016533     -136.260559      -44.444611
 C         -50.725010     -134.468781      -42.844036
 C         -50.385109     -137.311447      -43.453999
 C         -51.160709     -135.493607      -41.844635
 C         -51.479927     -136.819000      -42.462196
 H         -49.077545     -136.531509      -44.874535
 H         -50.760075     -136.119110      -45.319351
 H         -50.435699     -133.500000      -42.362141
 H         -51.600571     -134.256744      -43.591278
 H         -49.524632     -137.542435      -42.819824
 H         -50.643635     -138.212158      -44.068817
 H         -51.979057     -135.212204      -41.269009
 H         -50.370163     -135.682114      -41.130791
 H         -51.761505     -137.579895      -41.692295
 H         -52.320675     -136.600967      -43.074928
