20
 generated by VMD
 C         -52.731659     -146.568359      -44.403214
 N         -51.745865     -146.635406      -45.034225
 H         -53.727459     -145.909180      -47.037495
 H         -53.534798     -146.375305      -43.755512
 C         -54.005463     -145.203308      -47.864532
 C         -52.917664     -145.114273      -48.920269
 C         -54.819836     -144.038666      -47.640385
 C         -53.438175     -144.394974      -50.172966
 C         -55.331230     -143.409195      -48.859154
 C         -54.242283     -143.171371      -49.892784
 H         -52.521019     -146.155212      -49.059246
 H         -52.072979     -144.436829      -48.459324
 H         -55.770588     -144.318451      -47.184109
 H         -54.267021     -143.296387      -47.095024
 H         -54.137356     -145.181778      -50.678894
 H         -52.494518     -144.163345      -50.813560
 H         -55.590530     -142.381485      -48.397556
 H         -56.239594     -143.845840      -49.324089
 H         -54.605331     -142.638138      -50.866528
 H         -53.473179     -142.480194      -49.467972
