20
 generated by VMD
 C         -12.702435      -27.598248       -1.679591
 N         -11.726127      -27.117952       -1.892282
 H         -10.444571      -25.913145       -4.470383
 H          -8.983290      -25.757114       -5.428440
 C          -9.349219      -26.197474       -4.507581
 C          -8.996261      -27.660769       -4.505904
 C          -8.673402      -25.398666       -3.389444
 C          -7.530098      -28.030605       -4.154446
 C          -7.206116      -25.760494       -3.275465
 C          -6.987257      -27.220625       -3.003964
 H          -9.361292      -28.278503       -5.341074
 H          -9.681662      -28.001553       -3.711869
 H          -8.838001      -24.322001       -3.546451
 H          -9.124128      -25.677107       -2.445239
 H          -6.959908      -27.880848       -5.068396
 H          -7.387918      -29.085833       -4.072186
 H          -6.621265      -25.178066       -2.555602
 H          -6.591270      -25.592754       -4.141478
 H          -5.952384      -27.428312       -2.706267
 H          -7.546434      -27.461796       -2.061018
