20
 generated by VMD
 C         -49.765118     -127.367737      -39.812534
 N         -48.950897     -126.693848      -39.314667
 H         -47.113823     -126.586693      -41.914253
 H         -50.273495     -128.104172      -40.398003
 C         -46.396427     -126.002800      -41.265392
 C         -45.301888     -126.367409      -40.428684
 C         -46.737339     -124.529282      -41.213650
 C         -43.989559     -125.488091      -40.615894
 C         -45.545845     -123.608009      -41.476276
 C         -44.428295     -124.009254      -40.504517
 H         -45.085110     -127.488953      -40.665928
 H         -45.564941     -126.284996      -39.374092
 H         -47.589115     -124.260605      -41.871761
 H         -47.259712     -124.195206      -40.339359
 H         -43.433891     -125.730026      -41.542736
 H         -43.300968     -125.654900      -39.782902
 H         -45.701176     -122.584908      -41.122631
 H         -45.205418     -123.396370      -42.440125
 H         -43.514854     -123.391785      -40.637596
 H         -44.858536     -123.779343      -39.490879
