20
 generated by VMD
 C         -79.652504     -206.905258      -75.365974
 N         -79.955635     -207.478455      -74.383591
 H         -76.589249     -208.262299      -73.399803
 H         -79.582458     -206.301849      -76.227745
 C         -76.836128     -208.159821      -72.258492
 C         -75.680954     -207.927750      -71.392540
 C         -77.861603     -209.121353      -71.721466
 C         -75.996460     -207.705963      -69.972031
 C         -78.140518     -209.024826      -70.154999
 C         -76.878342     -208.762466      -69.344902
 H         -75.195320     -206.987625      -71.801659
 H         -74.958763     -208.706696      -71.591255
 H         -78.786827     -208.913788      -72.326126
 H         -77.551094     -210.092575      -72.106087
 H         -76.537071     -206.731003      -69.986908
 H         -75.049446     -207.505905      -69.399628
 H         -78.620613     -210.033081      -69.929527
 H         -78.855614     -208.260056      -69.830299
 H         -77.089371     -208.316071      -68.350334
 H         -76.544495     -209.731339      -69.068954
