20
 generated by VMD
 C         -20.290102      -57.284386      -16.777182
 N         -19.227932      -57.067631      -17.153919
 H         -22.506891      -59.688908      -17.467360
 H         -21.271683      -57.408642      -16.686357
 C         -22.459789      -60.338730      -16.634993
 C         -23.699656      -61.054272      -16.244478
 C         -21.093369      -60.930012      -16.267578
 C         -23.604696      -61.612728      -14.779042
 C         -21.304077      -62.306561      -15.702547
 C         -22.194298      -62.137428      -14.455372
 H         -24.014555      -61.794262      -16.993771
 H         -24.594225      -60.360622      -16.260534
 H         -20.366249      -61.071106      -17.056726
 H         -20.597319      -60.330639      -15.500694
 H         -24.311544      -62.431686      -14.782626
 H         -23.812515      -60.813473      -14.009897
 H         -20.273642      -62.544125      -15.373226
 H         -21.593479      -63.152119      -16.299583
 H         -22.211475      -62.930977      -13.716970
 H         -21.819408      -61.264309      -13.905299
