20
 generated by VMD
 C         -51.311718     -145.559326      -44.064857
 N         -51.299992     -146.428238      -44.827778
 H         -53.258133     -144.794998      -46.590393
 H         -51.511559     -144.755142      -43.390209
 C         -53.699894     -144.336761      -47.494572
 C         -52.775925     -144.168823      -48.600235
 C         -54.786491     -143.282272      -47.304634
 C         -53.408401     -143.872208      -49.925304
 C         -55.474960     -142.898819      -48.676212
 C         -54.398193     -142.639984      -49.827209
 H         -52.093815     -145.069244      -48.629330
 H         -52.101620     -143.365082      -48.436127
 H         -55.521343     -143.431015      -46.554173
 H         -54.232197     -142.451843      -46.740528
 H         -54.093124     -144.718719      -50.259548
 H         -52.761093     -143.716888      -50.871967
 H         -56.134373     -141.977219      -48.567795
 H         -56.075714     -143.710648      -49.074120
 H         -54.878422     -142.594391      -50.820057
 H         -53.790218     -141.709381      -49.655380
