20
 generated by VMD
 C         -70.256371     -198.654953      -64.228119
 N         -70.021492     -198.286163      -65.317703
 H         -72.875145     -196.727417      -66.477928
 H         -70.667046     -198.870102      -63.268383
 C         -73.322983     -195.879333      -66.970055
 C         -73.327492     -194.446304      -66.604996
 C         -74.338608     -196.187271      -68.054398
 C         -73.208664     -193.424683      -67.668564
 C         -74.859283     -194.994308      -68.781570
 C         -73.740608     -193.983353      -69.022354
 H         -72.462379     -194.268463      -65.884872
 H         -74.132919     -194.244156      -66.003540
 H         -73.818481     -196.825531      -68.858910
 H         -75.198448     -196.886322      -67.810478
 H         -72.152634     -193.150803      -67.743011
 H         -73.830101     -192.561096      -67.303452
 H         -75.701607     -194.511871      -68.260849
 H         -75.254616     -195.107498      -69.778442
 H         -72.888916     -194.514954      -69.464493
 H         -73.951241     -193.024994      -69.713898
