20
 generated by VMD
 C         -20.166315      -52.178959       -9.901403
 N         -21.058807      -51.471191      -10.123790
 H         -17.994913      -49.088467      -10.524113
 H         -19.619007      -52.844955       -9.596033
 C         -17.509338      -49.297958      -11.490648
 C         -16.916714      -50.665180      -11.720611
 C         -17.213726      -48.076397      -12.285091
 C         -16.810253      -50.821938      -13.238865
 C         -17.100090      -48.351421      -13.768177
 C         -16.201109      -49.590759      -14.012679
 H         -17.637020      -51.438904      -11.342940
 H         -15.919909      -50.764568      -11.286177
 H         -17.928829      -47.285492      -11.973773
 H         -16.242657      -47.692467      -11.894826
 H         -17.787769      -50.933472      -13.669831
 H         -16.158352      -51.690231      -13.350161
 H         -16.630823      -47.589451      -14.267120
 H         -18.126148      -48.607540      -14.163205
 H         -16.242521      -49.817894      -15.068197
 H         -15.168440      -49.406670      -13.795886
