20
 generated by VMD
 C         -58.450386     -151.244522      -49.459774
 N         -58.720421     -152.115555      -48.684822
 H         -55.415527     -149.903778      -47.699883
 H         -58.068611     -150.445694      -50.055157
 C         -55.145298     -149.456970      -48.665646
 C         -54.355015     -150.469498      -49.448868
 C         -54.927361     -148.032364      -48.925632
 C         -54.112911     -150.122452      -50.978683
 C         -54.875256     -147.746231      -50.394154
 C         -53.801682     -148.649094      -51.113762
 H         -54.843929     -151.436539      -49.385574
 H         -53.305805     -150.321182      -49.071331
 H         -55.980518     -147.614914      -48.614361
 H         -54.081566     -147.619629      -48.299152
 H         -55.063549     -150.406570      -51.470024
 H         -53.285431     -150.767395      -51.363678
 H         -54.626713     -146.737717      -50.721722
 H         -55.965996     -147.763016      -50.872688
 H         -53.904549     -148.476578      -52.267273
 H         -52.793079     -148.347809      -50.863251
