20
 generated by VMD
 C         -70.243584     -183.050095      -63.873913
 N         -69.821297     -183.185318      -64.942841
 H         -68.557571     -179.955154      -62.220894
 H         -70.690346     -182.887558      -62.863190
 C         -67.778450     -180.343079      -61.649624
 C         -67.768646     -181.808502      -61.366901
 C         -66.986839     -179.404770      -60.747425
 C         -66.493523     -182.439774      -60.942154
 C         -65.543388     -179.909073      -60.486301
 C         -65.647339     -181.434982      -59.955910
 H         -68.164307     -182.208740      -62.265526
 H         -68.614594     -182.139435      -60.781288
 H         -67.027969     -178.354446      -61.123787
 H         -67.353157     -179.264938      -59.679619
 H         -65.890564     -182.789047      -61.926716
 H         -66.705597     -183.356628      -60.314934
 H         -65.208862     -179.240509      -59.705921
 H         -64.874283     -179.900024      -61.343678
 H         -64.601433     -181.706238      -59.842846
 H         -66.167648     -181.447495      -58.991196
