20
 generated by VMD
 C         -19.977633      -61.730560      -16.352606
 N         -19.928097      -61.086662      -17.355446
 H         -21.479465      -64.107033      -17.412495
 H         -20.047718      -62.127964      -15.420468
 C         -22.579679      -64.006516      -17.367245
 C         -23.448099      -63.688267      -18.592007
 C         -23.308260      -64.240158      -16.038687
 C         -24.565357      -64.653534      -18.746695
 C         -24.628340      -65.055496      -16.063700
 C         -25.308584      -64.823830      -17.370026
 H         -22.767242      -63.473454      -19.477291
 H         -23.883190      -62.696571      -18.333021
 H         -22.432999      -64.773300      -15.465640
 H         -23.472727      -63.300629      -15.464477
 H         -24.193745      -65.601631      -19.237097
 H         -25.277813      -64.199562      -19.504816
 H         -25.226341      -64.840492      -15.162392
 H         -24.282862      -66.058167      -16.035414
 H         -26.050255      -65.599571      -17.638288
 H         -25.830360      -63.916504      -17.323812
