20
 generated by VMD
 C         -80.372993     -205.590164      -71.934250
 N         -79.818771     -206.571030      -71.815239
 H         -77.174530     -203.676819      -70.748085
 H         -81.008873     -204.678940      -71.791451
 C         -76.366432     -204.284088      -71.116531
 C         -75.019531     -203.606232      -71.268532
 C         -76.171410     -205.753632      -70.697601
 C         -74.279610     -203.622498      -69.835976
 C         -75.475876     -205.809082      -69.299156
 C         -74.178818     -205.006454      -69.190399
 H         -75.213966     -202.623672      -71.678291
 H         -74.456970     -204.193848      -72.077202
 H         -77.127754     -206.121384      -70.469856
 H         -75.764633     -206.288025      -71.552834
 H         -74.895363     -203.141037      -69.024078
 H         -73.269791     -203.046677      -69.863411
 H         -75.370491     -206.841751      -69.099312
 H         -76.133636     -205.502899      -68.441437
 H         -73.944725     -204.833252      -68.156593
 H         -73.299362     -205.437332      -69.747414
