20
 generated by VMD
 C         -12.025910      -31.483767       -9.039813
 N         -12.691254      -32.151775       -9.664332
 H         -10.656748      -34.228626       -6.638772
 H         -11.578963      -33.868343       -5.240944
 C         -11.324492      -34.671623       -5.926748
 C         -10.551004      -35.826118       -5.287090
 C         -12.498212      -35.301239       -6.653145
 C         -11.535415      -36.539993       -4.264617
 C         -13.494581      -35.972260       -5.735312
 C         -12.895292      -37.043095       -4.861674
 H          -9.763003      -35.319256       -4.734011
 H         -10.181315      -36.589725       -6.014297
 H         -13.104267      -34.462719       -7.040694
 H         -12.348022      -35.981678       -7.479300
 H         -11.778503      -35.711075       -3.536914
 H         -11.018913      -37.367622       -3.768780
 H         -14.331711      -36.346207       -6.327451
 H         -13.898714      -35.207851       -5.013534
 H         -13.585282      -37.248909       -4.065906
 H         -12.771741      -38.004429       -5.387697
