20
 generated by VMD
 C         -56.387215     -150.074005      -47.692638
 N         -57.514023     -150.312973      -47.611652
 H         -53.246540     -148.056396      -47.353905
 H         -55.334694     -149.730957      -47.847363
 C         -53.519257     -147.684448      -48.353092
 C         -53.103878     -148.552795      -49.595417
 C         -54.554619     -146.542145      -48.454430
 C         -54.143822     -148.647156      -50.788502
 C         -55.531975     -146.708099      -49.662891
 C         -54.974133     -147.379196      -50.983997
 H         -53.056679     -149.557800      -49.407505
 H         -52.090191     -148.283386      -50.064980
 H         -55.075813     -146.645126      -47.554569
 H         -54.000008     -145.620651      -48.588459
 H         -54.924320     -149.321548      -50.513027
 H         -53.708092     -149.078781      -51.703999
 H         -55.918507     -145.646988      -49.944164
 H         -56.398369     -147.345932      -49.345448
 H         -55.801300     -147.585510      -51.653442
 H         -54.402592     -146.637955      -51.563065
