20
 generated by VMD
 C         -22.684549      -55.216988      -15.167019
 N         -22.994291      -55.162174      -16.321150
 H         -19.499020      -54.401676      -15.288260
 H         -22.735718      -55.510529      -14.154374
 C         -19.221504      -55.285526      -14.827586
 C         -18.978708      -55.179871      -13.374260
 C         -19.601313      -56.612724      -15.470784
 C         -19.512453      -56.318596      -12.500581
 C         -19.362894      -57.886631      -14.647714
 C         -19.078802      -57.641804      -13.121581
 H         -19.507908      -54.303043      -13.012807
 H         -17.902843      -55.118996      -13.227307
 H         -20.620668      -56.452606      -15.821214
 H         -18.975029      -56.851845      -16.304216
 H         -20.568995      -56.303635      -12.254061
 H         -19.072218      -56.161755      -11.471289
 H         -18.528105      -58.431835      -15.079113
 H         -20.313202      -58.509670      -14.700531
 H         -19.501852      -58.515820      -12.591182
 H         -17.974348      -57.834843      -12.965820
