20
 generated by VMD
 C         -38.984573     -115.946480      -35.344299
 N         -39.412548     -115.378830      -34.409863
 H         -41.417603     -115.734161      -37.225460
 H         -38.602451     -116.504494      -36.133522
 C         -42.475594     -115.718689      -37.381451
 C         -43.032417     -115.554611      -38.794323
 C         -43.333942     -115.760773      -36.208126
 C         -44.264957     -116.327873      -38.959351
 C         -44.733662     -116.142685      -36.448517
 C         -45.279572     -116.002434      -37.860394
 H         -42.201450     -115.825569      -39.505745
 H         -43.311489     -114.505676      -39.039955
 H         -42.948776     -116.227669      -35.256409
 H         -43.305630     -114.729050      -35.807293
 H         -44.036846     -117.411804      -39.051342
 H         -44.730976     -115.956467      -39.938107
 H         -45.429630     -115.536583      -35.761551
 H         -44.903511     -117.226227      -36.040234
 H         -45.961338     -116.656708      -38.010353
 H         -45.596535     -114.951584      -38.096703
