20
 generated by VMD
 C         -66.658691     -177.908112      -56.937675
 N         -67.783257     -178.238770      -56.904446
 H         -64.438873     -176.244400      -59.772999
 H         -65.616760     -177.603775      -57.123093
 C         -64.274017     -175.147491      -59.614758
 C         -65.489090     -174.281509      -59.424248
 C         -63.169479     -174.559250      -60.356602
 C         -65.143318     -172.709320      -59.184120
 C         -63.057014     -172.957504      -60.331753
 C         -64.429016     -172.267136      -60.464966
 H         -66.025055     -174.693268      -58.455830
 H         -66.254417     -174.412704      -60.164734
 H         -62.154037     -174.964249      -60.004814
 H         -63.172123     -174.800003      -61.505768
 H         -64.468246     -172.550049      -58.290600
 H         -66.010277     -172.042831      -58.974892
 H         -62.531223     -172.619003      -61.172688
 H         -62.355503     -172.745087      -59.461170
 H         -64.222847     -171.199280      -60.510456
 H         -64.733391     -172.533142      -61.448318
