20
 generated by VMD
 C         -60.379997     -170.371979      -55.118813
 N         -59.221149     -170.458618      -55.394981
 H         -63.126499     -170.538452      -56.372627
 H         -61.469250     -170.259735      -54.977882
 C         -63.301651     -169.594513      -56.855759
 C         -62.376976     -168.957047      -57.855156
 C         -64.487839     -168.810699      -56.263584
 C         -63.051590     -167.893402      -58.759052
 C         -65.012688     -167.729095      -57.249493
 C         -63.952393     -167.018448      -57.982822
 H         -62.043167     -169.606674      -58.575211
 H         -61.441116     -168.475220      -57.263031
 H         -65.383690     -169.529160      -56.041782
 H         -64.118660     -168.480194      -55.274681
 H         -63.509026     -168.374619      -59.627922
 H         -62.233635     -167.399261      -59.203369
 H         -65.683472     -167.006485      -56.662994
 H         -65.729210     -168.274597      -57.992512
 H         -64.407791     -166.407379      -58.782982
 H         -63.465431     -166.370285      -57.265049
