20
 generated by VMD
 C         -60.182339     -156.229813      -55.553307
 N         -60.537312     -155.077744      -55.496601
 H         -59.775417     -157.645340      -52.709316
 H         -59.844097     -157.282364      -55.572498
 C         -58.922642     -157.591721      -52.067745
 C         -58.265224     -156.240402      -52.221165
 C         -58.021233     -158.788635      -51.720757
 C         -57.228207     -156.068329      -51.143749
 C         -56.961571     -158.453568      -50.684208
 C         -56.228794     -157.247070      -51.035385
 H         -59.113029     -155.580231      -51.977478
 H         -57.797237     -156.071625      -53.164017
 H         -58.744240     -159.616379      -51.369164
 H         -57.627083     -159.010681      -52.701057
 H         -57.831894     -155.791626      -50.331203
 H         -56.535782     -155.310791      -51.455257
 H         -56.202698     -159.263626      -50.611488
 H         -57.498463     -158.389786      -49.809345
 H         -55.506447     -157.077682      -50.192059
 H         -55.742569     -157.443085      -52.028370
