20
 generated by VMD
 C         -38.889896     -111.475174      -36.547104
 N         -38.338886     -110.483917      -36.686768
 H         -40.413998     -114.691055      -34.727394
 H         -39.417343     -112.388176      -36.215557
 C         -41.235680     -113.995819      -35.099094
 C         -41.657024     -114.001259      -36.603271
 C         -41.944477     -112.910057      -34.328213
 C         -43.168690     -114.090843      -36.742386
 C         -43.455803     -113.038330      -34.527142
 C         -43.814533     -112.913177      -36.031395
 H         -41.201378     -114.888191      -37.071507
 H         -41.317539     -113.040062      -36.982304
 H         -41.803413     -112.958702      -33.215080
 H         -41.466286     -111.958878      -34.664322
 H         -43.445686     -115.180870      -36.427010
 H         -43.545345     -114.078072      -37.784161
 H         -43.908066     -112.235970      -33.952602
 H         -43.993839     -113.976974      -34.208168
 H         -44.840794     -112.772209      -36.031227
 H         -43.420826     -111.994904      -36.350643
