20
 generated by VMD
 C         -10.772453      -37.178585       -8.193491
 N         -10.302656      -36.730083       -7.251051
 H         -12.862476      -39.008953       -7.909863
 H         -14.162139      -39.232914       -6.836365
 C         -13.806006      -39.556057       -7.802183
 C         -13.689587      -41.091125       -7.848325
 C         -14.814954      -39.107285       -8.907356
 C         -15.082808      -41.719250       -7.584053
 C         -16.199284      -39.821690       -8.913819
 C         -16.103418      -41.354576       -8.662774
 H         -12.988153      -41.432903       -7.105616
 H         -13.358967      -41.450451       -8.794410
 H         -14.974188      -38.024113       -8.898355
 H         -14.308376      -39.305542       -9.860259
 H         -15.375867      -41.445992       -6.583416
 H         -15.063757      -42.841320       -7.610436
 H         -16.617098      -39.655003       -9.876904
 H         -16.836264      -39.280933       -8.140937
 H         -17.077265      -41.800800       -8.522635
 H         -15.640803      -41.786568       -9.526279
