20
 generated by VMD
 C         -50.858120     -127.704979      -40.963852
 N         -51.427582     -128.416367      -41.652424
 H         -47.443195     -127.869072      -40.791382
 H         -50.269417     -126.999336      -40.374077
 C         -46.720810     -127.111870      -40.817287
 C         -45.438625     -127.528732      -40.166130
 C         -46.742332     -125.751701      -41.277122
 C         -44.125351     -127.005005      -40.714603
 C         -45.463882     -125.094765      -41.872593
 C         -44.273449     -125.487709      -41.046593
 H         -45.345093     -128.678406      -40.113983
 H         -45.562023     -127.287292      -39.050850
 H         -47.663063     -125.666916      -42.071198
 H         -46.927574     -125.268349      -40.296055
 H         -43.819149     -127.549789      -41.623932
 H         -43.393440     -127.254868      -39.919441
 H         -45.590439     -124.010529      -41.914749
 H         -45.477154     -125.521622      -42.939037
 H         -43.409634     -125.201317      -41.570499
 H         -44.288078     -124.928703      -40.095425
