20
 generated by VMD
 C         -69.413589     -180.934235      -62.285805
 N         -70.188606     -180.080307      -62.280373
 H         -66.930885     -181.442291      -60.531250
 H         -68.736031     -181.741455      -62.194202
 C         -66.504181     -180.482056      -60.491280
 C         -64.996986     -180.417603      -60.559242
 C         -67.180710     -179.278000      -59.951252
 C         -64.382759     -179.157486      -61.151638
 C         -66.736954     -177.965057      -60.545330
 C         -65.173233     -177.900070      -60.706493
 H         -64.571877     -181.299225      -61.110428
 H         -64.732697     -180.346649      -59.433605
 H         -68.228752     -179.568390      -59.958431
 H         -66.923286     -179.232468      -58.914459
 H         -64.358002     -179.341965      -62.315060
 H         -63.279537     -179.076843      -60.916420
 H         -67.003387     -177.073547      -59.966625
 H         -67.056450     -177.897491      -61.598499
 H         -64.872040     -177.231934      -61.527657
 H         -64.753563     -177.418091      -59.681080
