20
 generated by VMD
 C         -15.137785      -46.384121       -5.781475
 N         -14.872534      -47.426022       -5.464912
 H         -15.793002      -45.350128       -9.531794
 H         -14.771630      -45.415833      -10.969829
 C         -15.818007      -45.358486      -10.604396
 C         -16.444973      -44.112133      -11.177583
 C         -16.505636      -46.615772      -11.130277
 C         -16.567814      -43.987289      -12.733386
 C         -16.686466      -46.413551      -12.664459
 C         -17.364574      -45.130207      -13.212036
 H         -15.833487      -43.238346      -10.919799
 H         -17.478504      -43.979836      -10.785179
 H         -15.848379      -47.504723      -11.040161
 H         -17.473858      -46.727833      -10.539457
 H         -15.551170      -44.129631      -13.124510
 H         -16.971373      -42.992393      -13.022600
 H         -17.281460      -47.234901      -12.945501
 H         -15.646215      -46.548481      -13.133994
 H         -17.291203      -45.082489      -14.263222
 H         -18.438623      -45.196472      -13.031369
