20
 generated by VMD
 C         -72.849449     -199.035538      -65.630318
 N         -73.845314     -199.586349      -65.873520
 H         -71.160255     -196.755661      -67.218735
 H         -71.891029     -198.585175      -65.511444
 C         -72.125259     -196.559143      -67.657433
 C         -73.058739     -195.565659      -66.986755
 C         -72.396286     -196.962463      -69.043602
 C         -74.296593     -195.255554      -67.870461
 C         -73.874420     -197.334564      -69.243439
 C         -74.881371     -196.472168      -68.534714
 H         -72.749641     -194.651489      -66.553421
 H         -73.354439     -196.197784      -66.039146
 H         -72.171745     -196.142258      -69.668106
 H         -71.820976     -197.820938      -69.232559
 H         -74.035446     -194.610748      -68.712952
 H         -75.059418     -194.717728      -67.305344
 H         -73.915115     -198.362610      -68.888512
 H         -74.218880     -197.446167      -70.281906
 H         -75.668915     -196.275894      -69.163887
 H         -75.540833     -196.980743      -67.773346
