20
 generated by VMD
 C         -47.312248     -138.758942      -45.657677
 N         -46.948391     -138.390213      -46.744102
 H         -50.678101     -138.015518      -45.087700
 H         -47.747616     -138.881302      -44.629383
 C         -51.615353     -138.553650      -45.134258
 C         -51.684322     -139.171860      -46.420940
 C         -52.836464     -138.309952      -44.257462
 C         -52.933342     -140.080948      -46.735657
 C         -53.988205     -139.325439      -44.551125
 C         -54.177895     -139.523712      -46.039848
 H         -50.727974     -139.556503      -46.711491
 H         -51.847725     -138.393417      -47.143982
 H         -52.652073     -138.295456      -43.173813
 H         -53.262913     -137.318924      -44.421932
 H         -52.706020     -141.014359      -46.223072
 H         -52.884930     -140.324493      -47.809475
 H         -54.832317     -138.988235      -43.953209
 H         -53.850292     -140.336044      -44.102417
 H         -55.036446     -140.019592      -46.262707
 H         -54.544342     -138.597519      -46.453323
