20
 generated by VMD
 C         -41.501293     -102.338539      -34.394466
 N         -41.144936     -101.842506      -35.384323
 H         -39.528141     -104.157959      -32.231766
 H         -41.541569     -102.906746      -33.442841
 C         -38.538651     -104.275047      -32.050087
 C         -37.470692     -103.881195      -32.996346
 C         -38.215473     -105.192879      -30.999073
 C         -36.278534     -103.472694      -32.177139
 C         -36.826035     -105.013519      -30.249325
 C         -35.737835     -104.626244      -31.196499
 H         -37.665428     -102.904289      -33.525692
 H         -37.375271     -104.684891      -33.681984
 H         -39.065434     -105.256287      -30.194469
 H         -38.191692     -106.162964      -31.483994
 H         -36.526764     -102.554596      -31.521610
 H         -35.538498     -103.119987      -32.920483
 H         -36.540833     -105.870903      -29.629486
 H         -37.061558     -104.167664      -29.477331
 H         -34.938431     -104.157074      -30.705843
 H         -35.422089     -105.565979      -31.797867
