20
 generated by VMD
 C         -58.695568     -159.038010      -57.423336
 N         -59.114002     -158.158463      -58.118576
 H         -59.488712     -159.620575      -54.579357
 H         -58.304214     -159.784164      -56.746365
 C         -59.583572     -160.253036      -53.732334
 C         -58.505665     -160.355377      -52.695873
 C         -60.578754     -161.410233      -53.785091
 C         -58.980267     -160.955139      -51.261665
 C         -61.202984     -161.688721      -52.436047
 C         -60.116379     -161.936127      -51.315926
 H         -58.071323     -159.348511      -52.606441
 H         -57.743938     -161.169769      -52.937447
 H         -61.185040     -161.084641      -54.685272
 H         -60.165752     -162.337677      -54.111553
 H         -59.325676     -160.087494      -50.579956
 H         -58.123543     -161.215591      -50.583672
 H         -61.834358     -162.553589      -52.514656
 H         -61.798058     -160.863190      -52.091991
 H         -60.643837     -162.091812      -50.366135
 H         -59.843006     -163.025986      -51.327938
