20
 generated by VMD
 C         -68.371605     -188.153214      -66.655823
 N         -68.697281     -189.233276      -66.937660
 H         -68.271225     -187.371429      -63.638763
 H         -68.262169     -187.091537      -66.470314
 C         -69.300133     -187.707886      -63.485050
 C         -69.456154     -189.214417      -63.417496
 C         -70.498924     -186.731812      -63.178432
 C         -70.820366     -189.683746      -63.819698
 C         -71.765259     -187.288483      -63.816250
 C         -71.882828     -188.725861      -63.390800
 H         -69.501938     -189.543427      -62.335815
 H         -68.490288     -189.613373      -63.905643
 H         -70.627617     -186.562561      -62.113041
 H         -70.329147     -185.609665      -63.398705
 H         -71.033012     -190.686401      -63.330280
 H         -70.828308     -189.740540      -64.904755
 H         -71.799202     -187.252228      -64.901604
 H         -72.711174     -186.710693      -63.534206
 H         -72.044785     -188.728027      -62.291943
 H         -72.784119     -188.933289      -63.928268
