20
 generated by VMD
 C         -79.481506     -205.096725      -70.956100
 N         -80.607796     -205.443207      -70.901031
 H         -77.098076     -203.087097      -69.265411
 H         -78.466003     -204.871445      -70.738625
 C         -76.011887     -203.076828      -69.525742
 C         -75.522629     -201.971390      -70.319916
 C         -75.059204     -204.168274      -69.082069
 C         -73.973885     -201.717545      -70.429321
 C         -73.597366     -203.919907      -69.140526
 C         -73.059425     -202.997528      -70.174156
 H         -75.910004     -201.010178      -69.924347
 H         -75.927696     -201.964584      -71.304054
 H         -75.331741     -204.479996      -68.002464
 H         -75.429192     -205.168442      -69.593987
 H         -73.717369     -200.914658      -69.744370
 H         -73.802925     -201.253937      -71.357773
 H         -73.040329     -204.866531      -69.054756
 H         -73.148766     -203.424454      -68.247917
 H         -72.053696     -202.661209      -69.750977
 H         -72.740021     -203.450592      -71.185913
