20
 generated by VMD
 C         -49.645313     -141.513123      -45.551403
 N         -49.636330     -142.498459      -44.976513
 H         -51.569607     -138.779602      -46.203892
 H         -49.797977     -140.693787      -46.222210
 C         -52.223480     -139.575638      -46.503578
 C         -52.764572     -139.717697      -47.865925
 C         -52.972767     -140.396515      -45.410404
 C         -53.002991     -141.176758      -48.185841
 C         -53.474335     -141.718018      -45.794941
 C         -53.972641     -141.722519      -47.235310
 H         -52.048862     -139.307922      -48.626629
 H         -53.634983     -139.037628      -47.874584
 H         -52.491940     -140.247849      -44.469582
 H         -53.805187     -139.761841      -45.168308
 H         -51.987270     -141.707153      -48.249886
 H         -53.570538     -141.365295      -49.167011
 H         -54.190742     -142.050766      -45.088146
 H         -52.680485     -142.477371      -45.771797
 H         -54.384548     -142.807373      -47.381302
 H         -54.927860     -141.101334      -47.357811
