20
 generated by VMD
 C         -50.146221     -145.064056      -44.642738
 N         -49.459518     -144.124481      -44.491360
 H         -52.826775     -142.857834      -45.807583
 H         -50.884201     -145.832764      -44.676167
 C         -53.305275     -142.543030      -46.748280
 C         -52.466789     -142.393753      -48.029728
 C         -54.518604     -141.791718      -46.604485
 C         -53.292309     -142.775513      -49.206493
 C         -55.393353     -142.051132      -47.904472
 C         -54.588795     -141.992798      -49.194973
 H         -51.612728     -143.077667      -47.925102
 H         -51.958702     -141.518234      -48.250248
 H         -54.995090     -142.143234      -45.709454
 H         -54.231453     -140.848862      -46.440548
 H         -53.485470     -143.820633      -49.216019
 H         -52.710159     -142.593002      -50.101200
 H         -56.170368     -141.280319      -48.005390
 H         -55.778702     -143.009109      -47.834789
 H         -55.193607     -142.235611      -50.028309
 H         -54.375946     -141.022018      -49.406429
