20
 generated by VMD
 C         -69.783134     -183.230362      -65.524963
 N         -70.464699     -182.444641      -65.988968
 H         -67.401405     -184.399841      -62.910027
 H         -69.156319     -184.038269      -65.129982
 C         -67.491112     -183.659515      -62.122341
 C         -67.835381     -184.179535      -60.823746
 C         -67.701271     -182.247437      -62.439320
 C         -67.073204     -183.385071      -59.732864
 C         -66.791664     -181.529892      -61.465435
 C         -67.237534     -181.874664      -60.001202
 H         -67.466942     -185.240723      -60.708973
 H         -68.995842     -183.998306      -60.633003
 H         -67.499474     -181.907822      -63.528629
 H         -68.758789     -182.025452      -62.346386
 H         -66.125099     -183.772141      -59.658600
 H         -67.613182     -183.444351      -58.810242
 H         -66.849266     -180.422852      -61.607700
 H         -65.697479     -181.729584      -61.693726
 H         -66.647057     -181.265869      -59.286320
 H         -68.253494     -181.615250      -60.042690
