20
 generated by VMD
 C         -47.958420     -125.077988      -38.820507
 N         -47.282398     -125.980072      -38.649826
 H         -45.766556     -123.155136      -37.883244
 H         -48.653606     -124.352844      -39.248482
 C         -45.212574     -123.049477      -38.870296
 C         -44.249619     -124.045380      -39.367702
 C         -45.628593     -121.799744      -39.684734
 C         -44.406265     -124.305260      -40.781925
 C         -45.944763     -122.257812      -41.131397
 C         -44.886581     -123.170517      -41.777645
 H         -44.251701     -124.988167      -38.803986
 H         -43.295876     -123.510193      -39.084579
 H         -46.625366     -121.369850      -39.311176
 H         -44.835396     -121.024239      -39.495014
 H         -45.317070     -124.886879      -40.719707
 H         -43.447189     -124.797379      -41.064034
 H         -46.020973     -121.310150      -41.615028
 H         -46.800499     -122.882355      -41.110706
 H         -45.194660     -123.610916      -42.768272
 H         -44.044701     -122.480949      -41.925014
