20
 generated by VMD
 C         -67.818855     -185.800827      -67.296463
 N         -68.772537     -186.355179      -67.714424
 H         -68.566574     -187.927811      -64.684532
 H         -66.907852     -185.295120      -66.925606
 C         -69.295769     -187.656693      -63.921600
 C         -68.813461     -186.874695      -62.739555
 C         -70.739716     -188.128525      -63.985756
 C         -69.545441     -187.064453      -61.396946
 C         -71.294830     -188.399521      -62.590668
 C         -71.109154     -187.193436      -61.684986
 H         -68.944908     -185.852997      -63.073982
 H         -67.732605     -186.948074      -62.753082
 H         -71.478439     -187.525421      -64.498863
 H         -70.839790     -189.008530      -64.658981
 H         -69.417122     -186.280350      -60.615929
 H         -69.281250     -188.039200      -61.033630
 H         -70.957558     -189.337112      -62.174770
 H         -72.347641     -188.612854      -62.734447
 H         -71.342056     -186.145187      -61.979374
 H         -71.786545     -187.377686      -60.812393
