20
 generated by VMD
 C         -49.615734     -127.742439      -40.191387
 N         -50.579033     -127.726234      -40.864151
 H         -47.381836     -127.388786      -42.047874
 H         -48.715588     -127.701660      -39.553684
 C         -46.719193     -126.828941      -41.481194
 C         -45.869865     -127.263588      -40.338200
 C         -46.837238     -125.222252      -41.562927
 C         -44.413708     -126.657043      -40.510582
 C         -45.424793     -124.653969      -41.746410
 C         -44.470177     -125.212067      -40.736710
 H         -45.794426     -128.340683      -40.401676
 H         -46.220222     -126.877975      -39.279526
 H         -47.521088     -124.940079      -42.377941
 H         -47.221287     -124.894211      -40.664890
 H         -43.953812     -127.349754      -41.269447
 H         -43.868416     -126.746307      -39.551727
 H         -45.649158     -123.575630      -41.825943
 H         -45.082298     -124.886154      -42.759361
 H         -43.509640     -124.748123      -41.001923
 H         -44.655136     -124.709732      -39.812241
