20
 generated by VMD
 C         -67.683502     -179.535782      -58.663082
 N         -68.129807     -179.718201      -59.736717
 H         -67.511688     -176.905380      -59.947231
 H         -67.187004     -179.289429      -57.736004
 C         -66.452682     -176.638275      -60.042576
 C         -66.023888     -176.024307      -61.405205
 C         -65.327095     -177.179291      -59.274025
 C         -65.007088     -174.913284      -61.222229
 C         -64.268990     -176.054718      -59.131802
 C         -63.812439     -175.477478      -60.528248
 H         -66.909889     -175.566406      -61.800144
 H         -65.525734     -176.774734      -62.107685
 H         -65.555847     -177.549072      -58.311771
 H         -64.680046     -177.927841      -59.798595
 H         -65.461746     -174.043762      -60.556374
 H         -64.902283     -174.588165      -62.316307
 H         -63.325993     -176.406570      -58.642971
 H         -64.610306     -175.348938      -58.387566
 H         -63.079369     -174.722183      -60.271473
 H         -63.463966     -176.280716      -61.239223
