20
 generated by VMD
 C          -3.292970      -17.464270        2.421442
 N          -3.234543      -18.245203        1.622339
 H          -5.352876      -19.989315        0.885836
 H          -5.724045      -20.578753       -0.791326
 C          -5.907171      -19.755142       -0.064189
 C          -5.478642      -18.422691       -0.682782
 C          -7.422687      -19.795092        0.090166
 C          -6.239076      -18.128485       -2.012909
 C          -8.196936      -19.360519       -1.105551
 C          -7.723519      -18.096142       -1.807019
 H          -4.368572      -18.420628       -0.786044
 H          -5.712216      -17.536657       -0.104235
 H          -7.791186      -20.842722        0.373663
 H          -7.637708      -19.149952        1.028418
 H          -5.915807      -18.836382       -2.790029
 H          -5.955481      -17.109772       -2.372950
 H          -9.254604      -19.229109       -0.873715
 H          -8.168531      -20.165056       -1.796493
 H          -8.302539      -17.942234       -2.720875
 H          -8.033576      -17.221395       -1.180273
