20
 generated by VMD
 C         -38.348698     -112.803947      -36.223549
 N         -37.300510     -112.490097      -36.543240
 H         -41.333019     -114.775040      -34.797424
 H         -39.249931     -113.367813      -35.877304
 C         -42.167603     -114.594627      -35.378181
 C         -42.040882     -114.773705      -36.894650
 C         -43.329754     -114.004837      -34.719055
 C         -43.385284     -114.832634      -37.602840
 C         -44.668758     -114.280289      -35.504986
 C         -44.515507     -113.975121      -36.982079
 H         -41.481651     -115.657104      -36.852165
 H         -41.507359     -113.845398      -37.114021
 H         -43.562954     -114.284355      -33.695217
 H         -43.197346     -112.928406      -34.906670
 H         -43.736584     -115.878838      -37.491440
 H         -43.265923     -114.609528      -38.678024
 H         -45.339268     -113.636467      -34.897350
 H         -45.032993     -115.358337      -35.458164
 H         -45.580898     -114.141747      -37.495117
 H         -44.379364     -112.885025      -37.075130
