20
 generated by VMD
 C         -50.603333     -127.714417      -40.777538
 N         -51.226330     -128.285812      -41.549614
 H         -47.332611     -127.781998      -41.367607
 H         -49.773731     -127.178673      -40.346588
 C         -46.591988     -127.004738      -41.042133
 C         -45.543388     -127.452911      -40.088493
 C         -46.786690     -125.601967      -41.223278
 C         -44.247715     -126.992905      -40.676296
 C         -45.539341     -125.066170      -41.837868
 C         -44.268116     -125.425323      -41.005878
 H         -45.700169     -128.553848      -40.158318
 H         -45.820290     -127.015961      -39.053532
 H         -47.792580     -125.465439      -41.887814
 H         -47.085484     -124.991600      -40.381901
 H         -44.167099     -127.494957      -41.648148
 H         -43.314148     -127.148216      -40.136116
 H         -45.578850     -124.029678      -42.193672
 H         -45.404957     -125.691109      -42.845123
 H         -43.397499     -125.248779      -41.588337
 H         -44.188625     -124.781578      -40.118496
