20
 generated by VMD
 C         -13.543752      -44.131218       -6.721128
 N         -13.737934      -43.934700       -5.649450
 H         -14.775041      -44.744026       -9.056029
 H         -14.414730      -43.792244      -10.441788
 C         -15.220390      -44.371124      -10.023446
 C         -16.426861      -43.468246       -9.730011
 C         -15.640575      -45.541233      -10.934513
 C         -16.950510      -42.915409      -11.037790
 C         -16.060333      -45.059429      -12.339950
 C         -17.144781      -44.032986      -12.091288
 H         -16.106869      -42.727680       -8.924352
 H         -17.282274      -43.979542       -9.245477
 H         -14.864971      -46.326057      -11.070873
 H         -16.462925      -46.122608      -10.509060
 H         -16.226753      -42.222553      -11.478127
 H         -17.848026      -42.331188      -10.878155
 H         -16.515942      -45.879158      -13.023128
 H         -15.153651      -44.720695      -12.840830
 H         -17.380817      -43.467361      -13.020696
 H         -18.005280      -44.602524      -11.776094
