20
 generated by VMD
 C         -47.924595     -134.663025      -46.608746
 N         -47.940475     -134.398621      -47.791939
 H         -50.234318     -134.480576      -44.948578
 H         -47.981964     -134.999237      -45.583187
 C         -50.630157     -135.406952      -44.487770
 C         -51.124836     -136.618210      -45.188095
 C         -51.187130     -135.217896      -43.103954
 C         -51.066700     -137.872620      -44.379585
 C         -51.045074     -136.510101      -42.269890
 C         -51.775326     -137.641830      -43.003075
 H         -50.585152     -136.832703      -46.158096
 H         -52.173904     -136.447769      -45.416393
 H         -50.559334     -134.470779      -42.685707
 H         -52.177380     -134.777222      -43.105808
 H         -50.125381     -138.295883      -44.048401
 H         -51.596886     -138.651184      -44.948299
 H         -51.563423     -136.346802      -41.229923
 H         -49.953533     -136.680893      -42.029335
 H         -51.794865     -138.483551      -42.394844
 H         -52.797901     -137.491974      -43.077782
