20
 generated by VMD
 C         -38.576500     -113.765854      -35.572132
 N         -38.069855     -114.792755      -35.621658
 H         -41.170601     -114.766968      -36.224300
 H         -38.868736     -112.719986      -35.642097
 C         -42.271469     -114.679550      -36.399799
 C         -42.640213     -114.536346      -37.821491
 C         -43.390408     -114.482895      -35.437500
 C         -43.727116     -115.578835      -38.165829
 C         -44.699913     -115.266830      -35.868591
 C         -44.926418     -115.359734      -37.359962
 H         -41.839725     -114.615196      -38.505650
 H         -42.973484     -113.523727      -38.045208
 H         -43.038681     -114.791451      -34.452583
 H         -43.532730     -113.420692      -35.598595
 H         -43.275745     -116.639290      -37.945023
 H         -43.997501     -115.568207      -39.249645
 H         -45.540180     -114.753311      -35.380787
 H         -44.613831     -116.250954      -35.486687
 H         -45.686840     -116.152206      -37.651012
 H         -45.578323     -114.406975      -37.668800
