20
 generated by VMD
 C         -71.149025     -198.901993      -64.496208
 N         -70.344940     -198.586609      -65.258133
 H         -72.544029     -196.661102      -66.414520
 H         -71.708961     -199.354782      -63.719944
 C         -72.994484     -195.909927      -67.065186
 C         -73.272255     -194.563705      -66.633492
 C         -73.630363     -196.437958      -68.311371
 C         -73.289772     -193.604889      -67.877884
 C         -74.784569     -195.511139      -68.750603
 C         -74.267067     -194.056122      -68.949814
 H         -72.610619     -194.192749      -65.881340
 H         -74.194908     -194.481552      -65.951622
 H         -72.767113     -196.386459      -68.962219
 H         -73.901085     -197.498764      -68.141609
 H         -72.337921     -193.285110      -68.324883
 H         -73.614731     -192.650726      -67.489105
 H         -75.439964     -195.604126      -67.909538
 H         -75.411087     -195.893143      -69.545883
 H         -73.765549     -194.075058      -69.920525
 H         -75.165588     -193.366684      -69.133194
