20
 generated by VMD
 C         -48.447311     -140.637131      -45.470966
 N         -47.269459     -140.481720      -45.471916
 H         -51.029484     -138.993591      -45.734001
 H         -49.429070     -141.058670      -45.432205
 C         -52.050755     -139.180695      -46.015976
 C         -52.477161     -139.346008      -47.436390
 C         -53.050522     -139.574844      -44.889137
 C         -53.356365     -140.608261      -47.778652
 C         -53.909924     -140.752365      -45.249538
 C         -54.478085     -140.790680      -46.685539
 H         -51.471073     -139.541122      -47.888573
 H         -52.917767     -138.417984      -47.775871
 H         -52.715099     -139.702362      -43.899681
 H         -53.641994     -138.705719      -44.732155
 H         -52.687275     -141.525452      -47.870213
 H         -53.728317     -140.442795      -48.826984
 H         -54.784248     -140.837128      -44.535191
 H         -53.263935     -141.583069      -45.189686
 H         -55.016850     -141.804337      -46.863091
 H         -55.350655     -139.983032      -46.629822
