20
 generated by VMD
 C         -68.489868     -185.051041      -66.063675
 N         -69.532272     -185.593719      -66.090324
 H         -69.534897     -182.788986      -63.449322
 H         -67.530602     -184.570251      -65.961494
 C         -69.286377     -183.594070      -62.746632
 C         -70.117043     -184.841461      -62.654518
 C         -67.838715     -183.683075      -62.554897
 C         -69.207497     -185.973572      -61.997986
 C         -67.581215     -184.203049      -61.155464
 C         -68.360100     -185.483749      -60.805538
 H         -70.542694     -185.076126      -63.631065
 H         -70.931580     -184.529922      -61.991913
 H         -67.364655     -184.285736      -63.234032
 H         -67.393913     -182.703842      -62.617409
 H         -68.583099     -186.380142      -62.821270
 H         -69.878952     -186.857346      -61.699539
 H         -67.900406     -183.388641      -60.493679
 H         -66.499184     -184.310394      -61.039684
 H         -67.519173     -186.190948      -60.488579
 H         -69.096451     -185.323273      -59.891808
