20
 generated by VMD
 C         -42.262154     -120.401230      -34.918755
 N         -42.470806     -121.281509      -34.157600
 H         -43.522293     -120.273972      -37.675674
 H         -41.959393     -119.808678      -35.818317
 C         -43.950737     -119.570175      -38.319405
 C         -43.125031     -119.071434      -39.405453
 C         -45.166767     -118.748421      -38.098125
 C         -43.898357     -118.899796      -40.780804
 C         -46.036236     -118.620468      -39.377354
 C         -45.187164     -118.026093      -40.557949
 H         -42.223328     -119.567619      -39.618633
 H         -42.696690     -118.050247      -39.192726
 H         -45.887035     -119.165649      -37.420605
 H         -44.857044     -117.697426      -37.679508
 H         -44.244728     -119.855995      -41.160908
 H         -43.187233     -118.557114      -41.470829
 H         -46.807919     -117.862907      -39.275303
 H         -46.638657     -119.513641      -39.693001
 H         -45.682472     -118.069115      -41.571968
 H         -45.054394     -116.850777      -40.450256
