20
 generated by VMD
 C         -49.528885     -131.826782      -46.486622
 N         -50.247852     -132.401230      -47.230038
 H         -47.761963     -133.662720      -44.609440
 H         -49.225082     -131.297241      -45.550037
 C         -48.396801     -133.998215      -43.746994
 C         -49.203201     -135.242767      -43.963860
 C         -49.104164     -133.023636      -42.803719
 C         -49.699959     -135.897308      -42.648056
 C         -49.589882     -133.621506      -41.499092
 C         -50.452957     -134.916031      -41.809334
 H         -48.524616     -135.986847      -44.534935
 H         -50.022972     -134.940979      -44.612946
 H         -48.498409     -132.033401      -42.723999
 H         -50.020290     -132.779907      -43.332066
 H         -48.805939     -136.297455      -42.206459
 H         -50.168179     -136.829971      -42.932583
 H         -50.193913     -132.955856      -40.966667
 H         -48.685947     -133.917709      -40.955334
 H         -50.748333     -135.433975      -40.975807
 H         -51.269051     -134.651154      -42.451344
