20
 generated by VMD
 C         -39.079521     -116.081589      -35.277611
 N         -39.425709     -115.387070      -34.399830
 H         -41.389156     -115.694763      -37.418186
 H         -38.742516     -116.687225      -36.171017
 C         -42.426014     -115.830460      -37.469326
 C         -42.976658     -115.538269      -38.815681
 C         -43.320961     -115.697899      -36.259758
 C         -44.317902     -116.377274      -38.993759
 C         -44.799892     -116.222328      -36.447948
 C         -45.345295     -116.055611      -37.874161
 H         -42.234352     -115.809662      -39.611816
 H         -43.096809     -114.451607      -38.875317
 H         -42.884411     -116.298874      -35.382710
 H         -43.175571     -114.719322      -35.788624
 H         -43.907009     -117.387123      -38.992596
 H         -44.835533     -116.170685      -39.990292
 H         -45.482826     -115.782990      -35.649918
 H         -44.850170     -117.354225      -36.193760
 H         -46.149754     -116.619835      -38.042580
 H         -45.473614     -114.987373      -38.081192
