20
 generated by VMD
 C         -50.825287     -129.204666      -44.811329
 N         -50.939426     -130.169037      -44.273571
 H         -49.096375     -128.477356      -41.537861
 H         -50.577564     -128.386917      -45.490143
 C         -48.017632     -128.644928      -41.268555
 C         -47.845085     -130.068161      -40.933155
 C         -47.109016     -127.599808      -40.853069
 C         -46.483143     -130.438629      -41.473106
 C         -45.741745     -127.965233      -41.324318
 C         -45.377811     -129.423584      -41.004219
 H         -48.714054     -130.552887      -41.549385
 H         -47.966789     -130.312424      -39.890057
 H         -47.463917     -126.665939      -41.211437
 H         -47.047241     -127.438667      -39.699684
 H         -46.380272     -130.672775      -42.569611
 H         -46.202881     -131.498352      -41.151592
 H         -45.148830     -127.192558      -40.883331
 H         -45.704643     -127.802231      -42.455956
 H         -44.433521     -129.694122      -41.455849
 H         -45.371479     -129.416611      -39.849049
