20
 generated by VMD
 C         -31.609892      -78.602898      -26.371796
 N         -31.217022      -77.938278      -27.225618
 H         -29.527815      -79.537636      -23.645462
 H         -31.986500      -79.033890      -25.391567
 C         -29.028137      -80.588219      -23.641029
 C         -27.601437      -80.739708      -23.320150
 C         -29.926332      -81.819962      -23.549246
 C         -27.591105      -81.015427      -21.837227
 C         -29.966204      -82.097061      -22.067583
 C         -28.494257      -82.250229      -21.491301
 H         -27.069414      -79.804146      -23.520914
 H         -27.014280      -81.578339      -23.756973
 H         -30.826792      -81.428825      -23.987188
 H         -29.584255      -82.724274      -24.061531
 H         -27.936768      -80.072563      -21.356983
 H         -26.585566      -81.203049      -21.527313
 H         -30.581003      -82.940201      -21.922401
 H         -30.486465      -81.323647      -21.450783
 H         -28.436295      -82.323296      -20.350872
 H         -28.126797      -83.275955      -21.765858
