20
 generated by VMD
 C         -22.786884      -55.478001      -16.992151
 N         -23.077513      -54.401039      -17.292984
 H         -20.200312      -55.938297      -15.172348
 H         -22.188639      -56.389824      -16.916708
 C         -20.073723      -56.853111      -14.695053
 C         -20.626770      -57.157120      -13.350451
 C         -18.780249      -57.647881      -15.003807
 C         -20.872482      -58.626324      -13.181699
 C         -19.187225      -59.135227      -14.899279
 C         -19.785048      -59.606281      -13.650628
 H         -21.527367      -56.593166      -13.071413
 H         -19.791227      -56.941502      -12.713128
 H         -18.398985      -57.344456      -16.015182
 H         -18.017366      -57.438427      -14.265800
 H         -21.839064      -58.840786      -13.752638
 H         -21.053415      -58.893906      -12.144719
 H         -18.209152      -59.691219      -15.035640
 H         -19.803423      -59.341064      -15.762960
 H         -20.178606      -60.636063      -13.878111
 H         -19.055765      -59.658482      -12.830511
