20
 generated by VMD
 C          -6.817118      -23.319574        3.321045
 N          -6.606976      -22.692303        2.404305
 H          -7.496621      -22.305000       -0.397716
 H          -8.856121      -22.229145       -1.529654
 C          -7.752872      -21.945917       -1.420403
 C          -6.853175      -22.696543       -2.448290
 C          -7.521033      -20.470577       -1.489209
 C          -7.052882      -22.229073       -3.913213
 C          -7.679399      -19.926964       -2.908133
 C          -6.771221      -20.699472       -3.970911
 H          -7.104267      -23.795956       -2.328138
 H          -5.833272      -22.693678       -2.185375
 H          -8.277559      -19.908714       -0.914115
 H          -6.504360      -20.220644       -1.201611
 H          -8.113845      -22.428705       -4.255930
 H          -6.260547      -22.736935       -4.528337
 H          -7.339880      -18.876127       -2.862103
 H          -8.690948      -20.040983       -3.308436
 H          -7.050286      -20.274599       -4.958557
 H          -5.703500      -20.473379       -3.802558
