20
 generated by VMD
 C         -10.234601      -24.904184       -0.665819
 N         -11.335976      -24.816395       -0.578511
 H          -6.333616      -25.350931       -0.981542
 H          -8.032021      -25.176497       -1.202219
 C          -7.088853      -25.065670       -1.748735
 C          -6.895106      -25.876760       -3.023669
 C          -6.914629      -23.548290       -1.999967
 C          -7.913929      -25.485527       -4.118597
 C          -7.823281      -23.143749       -3.064098
 C          -7.881248      -23.974907       -4.338867
 H          -7.021578      -26.985661       -2.835191
 H          -5.944955      -25.559071       -3.366088
 H          -7.106548      -23.020302       -1.059569
 H          -5.863358      -23.361502       -2.375981
 H          -8.897978      -25.768204       -3.769939
 H          -7.643945      -25.959259       -5.070597
 H          -7.654325      -22.081352       -3.314726
 H          -8.860894      -23.214750       -2.685322
 H          -8.712318      -23.639271       -4.950121
 H          -6.903258      -23.672684       -4.796101
