20
 generated by VMD
 C         -22.413589      -67.670532      -16.218908
 N         -21.282270      -67.564079      -15.962897
 H         -24.176682      -65.430641      -18.425308
 H         -23.414480      -67.755180      -16.216805
 C         -24.459610      -66.474014      -18.639236
 C         -23.872740      -66.900627      -19.930370
 C         -25.949240      -66.518494      -18.604361
 C         -24.521620      -68.161919      -20.380501
 C         -26.558643      -67.868774      -18.883698
 C         -26.004385      -68.181274      -20.300232
 H         -22.774324      -66.853096      -19.751554
 H         -24.142010      -66.096970      -20.657249
 H         -26.370846      -66.084030      -17.738100
 H         -26.307312      -65.681084      -19.283215
 H         -24.024242      -69.010506      -19.879715
 H         -24.186199      -68.256065      -21.482384
 H         -27.634306      -67.947632      -18.932039
 H         -26.182646      -68.752525      -18.299990
 H         -26.267517      -69.232178      -20.463305
 H         -26.460535      -67.452965      -21.028757
