20
 generated by VMD
 C         -78.684830     -208.610580      -76.995331
 N         -79.291054     -208.439026      -76.013763
 H         -78.460266     -209.321762      -73.391121
 H         -78.206207     -208.847107      -77.905396
 C         -78.385567     -209.889908      -72.474350
 C         -77.140846     -209.795166      -71.885666
 C         -79.209526     -211.063614      -72.136414
 C         -77.273193     -209.894470      -70.381126
 C         -79.084274     -211.423035      -70.619408
 C         -77.735016     -211.253708      -69.901688
 H         -76.651794     -208.843033      -72.129051
 H         -76.363983     -210.465591      -72.391365
 H         -80.311356     -210.910370      -72.334175
 H         -78.878983     -211.851166      -72.803078
 H         -77.730751     -209.067703      -69.839539
 H         -76.221367     -209.807114      -70.088257
 H         -79.498016     -212.535873      -70.685234
 H         -79.732567     -210.820236      -70.050797
 H         -77.912491     -211.589920      -68.876244
 H         -77.015656     -211.919128      -70.393883
