20
 generated by VMD
 C          -1.473967      -11.528825        1.591589
 N          -1.127571      -12.261884        0.793233
 H          -3.705099      -13.117877        0.392702
 H          -5.518263      -13.035111        0.800757
 C          -4.579422      -13.643090        0.886557
 C          -4.360318      -13.837619        2.417236
 C          -4.907516      -14.890758        0.105700
 C          -5.484489      -14.624599        3.017930
 C          -5.977119      -15.730827        0.794484
 C          -5.740889      -15.956915        2.322468
 H          -4.159776      -12.906567        2.837166
 H          -3.439145      -14.410412        2.471614
 H          -5.256694      -14.562580       -0.940070
 H          -3.963523      -15.519925        0.007053
 H          -6.365068      -13.985121        3.065794
 H          -5.137142      -14.847008        4.001356
 H          -6.190987      -16.629154        0.235225
 H          -6.916039      -15.131937        0.751289
 H          -6.702378      -16.333691        2.747012
 H          -4.948596      -16.708408        2.547048
