20
 generated by VMD
 C         -66.825111     -191.091980      -66.292381
 N         -67.742455     -190.586868      -66.784584
 H         -70.589256     -190.026459      -66.634644
 H         -65.919884     -191.728638      -66.054123
 C         -71.140259     -190.082886      -65.734451
 C         -72.202873     -191.142075      -65.500046
 C         -70.665527     -189.471848      -64.474983
 C         -73.339966     -190.785400      -64.554092
 C         -71.913963     -188.812729      -63.844284
 C         -72.765709     -189.917404      -63.272602
 H         -71.693001     -192.183594      -65.158623
 H         -72.534866     -191.394928      -66.498444
 H         -70.133072     -190.339386      -63.946381
 H         -69.842728     -188.838196      -64.809914
 H         -73.806465     -191.707870      -64.206978
 H         -74.016777     -190.197922      -65.104454
 H         -72.571518     -188.246841      -64.552017
 H         -71.547340     -188.148041      -62.966705
 H         -72.138626     -190.763336      -62.722534
 H         -73.445694     -189.528244      -62.557964
