20
 generated by VMD
 C         -50.034004     -131.606201      -46.677158
 N         -50.167805     -131.920898      -47.805328
 H         -48.722374     -131.609619      -44.027630
 H         -49.732239     -131.719742      -45.659725
 C         -48.899414     -132.245453      -43.171768
 C         -49.605709     -133.510117      -43.389423
 C         -48.790066     -131.849731      -41.682415
 C         -49.058643     -134.667496      -42.570858
 C         -48.051197     -132.974289      -40.935642
 C         -48.784893     -134.319336      -41.117722
 H         -49.705181     -133.903198      -44.477226
 H         -50.571648     -133.230331      -43.097248
 H         -48.068199     -130.987534      -41.602402
 H         -49.761787     -131.724655      -41.329781
 H         -48.097599     -134.903229      -43.125832
 H         -49.783867     -135.496918      -42.730316
 H         -48.005207     -132.742935      -39.866550
 H         -47.083527     -133.237808      -41.464256
 H         -48.374187     -135.122467      -40.493633
 H         -49.771351     -134.195847      -40.532749
