20
 generated by VMD
 C         -10.614566      -36.013988       -8.765668
 N         -10.647179      -36.687607       -7.898630
 H         -13.465589      -37.149113       -7.366877
 H         -14.397781      -38.084469       -6.181134
 C         -13.988460      -38.141033       -7.145459
 C         -13.083525      -39.376907       -7.113908
 C         -15.010651      -38.202606       -8.217242
 C         -13.866673      -40.700554       -7.151577
 C         -15.877340      -39.447533       -8.088870
 C         -14.981395      -40.709522       -8.188721
 H         -12.439115      -39.371300       -6.182194
 H         -12.309750      -39.277679       -7.930608
 H         -15.667202      -37.308659       -8.099292
 H         -14.512622      -38.020840       -9.229886
 H         -14.259829      -40.989475       -6.129054
 H         -13.195780      -41.557148       -7.311691
 H         -16.579035      -39.477440       -8.924161
 H         -16.457760      -39.491413       -7.173601
 H         -15.596125      -41.626228       -8.169373
 H         -14.452128      -40.690525       -9.176821
