20
 generated by VMD
 C         -79.476509     -206.819046      -74.816696
 N         -80.056931     -207.663818      -74.259712
 H         -77.103912     -207.709106      -73.338928
 H         -78.891129     -205.986755      -75.170906
 C         -76.932068     -207.833878      -72.205658
 C         -75.673111     -207.397171      -71.474304
 C         -77.763565     -208.972885      -71.677956
 C         -75.686996     -207.621353      -69.922089
 C         -78.066719     -208.602127      -70.247086
 C         -76.792717     -208.550110      -69.390503
 H         -75.131248     -206.487045      -71.840118
 H         -75.068039     -208.200867      -71.912453
 H         -78.749535     -209.076920      -72.257645
 H         -77.130295     -209.851898      -71.836769
 H         -75.755226     -206.650589      -69.494904
 H         -74.661697     -207.838974      -69.687691
 H         -78.732689     -209.389786      -69.783066
 H         -78.566750     -207.699921      -70.017082
 H         -77.180626     -208.206924      -68.427223
 H         -76.415268     -209.606750      -69.284622
