20
 generated by VMD
 C         -77.318031     -203.484512      -67.260696
 N         -77.989319     -204.379074      -66.987923
 H         -75.002205     -201.025497      -67.814468
 H         -76.777046     -202.679626      -67.818855
 C         -74.629578     -200.454514      -68.610962
 C         -74.937737     -198.893890      -68.641579
 C         -73.869125     -201.207077      -69.641777
 C         -73.731636     -198.173676      -69.489120
 C         -72.783386     -200.396072      -70.404701
 C         -73.363464     -198.907181      -70.695259
 H         -74.946335     -198.377228      -67.675201
 H         -75.868607     -198.698608      -69.013382
 H         -73.317169     -202.084579      -69.200424
 H         -74.512924     -201.556259      -70.450508
 H         -72.896568     -198.053192      -68.770142
 H         -74.041740     -197.105835      -69.697098
 H         -72.372963     -200.890625      -71.288666
 H         -72.006531     -200.280762      -69.671654
 H         -72.572533     -198.297058      -71.259415
 H         -74.200188     -199.022888      -71.284706
