20
 generated by VMD
 C         -29.819874      -79.861610      -26.461243
 N         -30.147665      -78.942612      -25.865784
 H         -28.599867      -82.890312      -25.722076
 H         -29.386190      -80.827660      -26.937405
 C         -29.235977      -82.899559      -24.773884
 C         -28.809374      -81.994965      -23.729469
 C         -29.912117      -84.115509      -24.356834
 C         -29.839106      -81.620483      -22.663492
 C         -31.101547      -83.850731      -23.470390
 C         -30.678034      -82.888069      -22.246588
 H         -28.608126      -81.073593      -24.248699
 H         -27.928970      -82.318947      -23.151316
 H         -30.150122      -84.590118      -25.268547
 H         -29.251945      -84.815887      -23.751343
 H         -30.405893      -80.705956      -23.053541
 H         -29.282743      -81.068085      -21.869341
 H         -31.546560      -84.714272      -23.098375
 H         -31.934708      -83.259972      -23.887650
 H         -31.616739      -82.653282      -21.684019
 H         -29.909805      -83.411842      -21.591965
