20
 generated by VMD
 C         -12.868862      -28.762371       -6.015860
 N         -13.083179      -28.723021       -7.108624
 H         -12.137265      -31.318874       -4.942136
 H         -11.135920      -29.820316       -5.057921
 C         -11.121305      -30.927891       -4.744682
 C         -10.118186      -31.667191       -5.636250
 C         -10.916380      -30.969204       -3.242856
 C          -8.615539      -31.476866       -5.181320
 C          -9.425822      -31.013889       -2.800382
 C          -8.474399      -31.859955       -3.734083
 H         -10.227925      -31.390951       -6.653689
 H         -10.187675      -32.801945       -5.611048
 H         -11.476651      -30.160767       -2.772981
 H         -11.345814      -31.895126       -2.892460
 H          -8.286942      -30.426981       -5.321355
 H          -7.995215      -32.069828       -5.869788
 H          -9.393672      -31.473873       -1.762901
 H          -9.113385      -30.004683       -2.733374
 H          -7.423523      -31.757095       -3.327894
 H          -8.786183      -32.916306       -3.655085
