20
 generated by VMD
 C         -23.110153      -53.370514      -13.836512
 N         -23.850763      -52.953129      -14.703815
 H         -20.591148      -55.527157      -13.868115
 H         -22.649084      -53.877811      -13.040831
 C         -19.637163      -55.212337      -14.284002
 C         -19.151501      -53.879456      -13.732759
 C         -18.605150      -56.218163      -14.599150
 C         -17.993465      -53.903038      -12.765969
 C         -17.621141      -56.306786      -13.443818
 C         -16.897335      -54.926826      -13.234597
 H         -19.990725      -53.368820      -13.368585
 H         -18.843891      -53.292568      -14.555907
 H         -19.119957      -57.150761      -14.793875
 H         -18.130251      -55.916470      -15.493897
 H         -18.382219      -54.196167      -11.794251
 H         -17.420425      -52.966858      -12.709556
 H         -16.863901      -57.121071      -13.627306
 H         -18.088827      -56.530437      -12.513563
 H         -16.136465      -54.968548      -12.410851
 H         -16.461945      -54.588505      -14.253891
