20
 generated by VMD
 C         -40.959221     -104.306732      -36.343483
 N         -41.875290     -105.002640      -36.370770
 H         -38.345161     -104.542473      -33.896122
 H         -40.187775     -103.521416      -36.405964
 C         -38.339138     -105.396339      -33.127735
 C         -37.223530     -105.682426      -32.282784
 C         -39.326061     -106.482880      -33.325542
 C         -37.407677     -106.730301      -31.144354
 C         -39.433792     -107.587708      -32.153725
 C         -38.063015     -107.974953      -31.698824
 H         -36.783810     -104.791519      -31.780243
 H         -36.427299     -106.038940      -32.977821
 H         -40.325813     -106.139931      -33.404255
 H         -38.958118     -106.999825      -34.265327
 H         -37.989655     -106.097191      -30.516787
 H         -36.471458     -106.935394      -30.660313
 H         -39.973671     -108.448212      -32.604763
 H         -40.049061     -107.227859      -31.259104
 H         -38.195026     -108.559891      -30.711203
 H         -37.613972     -108.568153      -32.442345
