20
 generated by VMD
 C         -60.696911     -153.474716      -51.765541
 N         -61.425751     -154.375748      -51.850197
 H         -57.636456     -153.989853      -52.045315
 H         -59.997234     -152.631195      -51.764015
 C         -56.832123     -153.520630      -51.489170
 C         -56.598061     -153.752136      -50.083218
 C         -55.950485     -152.405960      -52.012569
 C         -55.143196     -153.941803      -49.748268
 C         -54.418400     -152.387268      -51.648819
 C         -54.291767     -152.686661      -50.168594
 H         -57.178642     -154.654861      -49.702213
 H         -57.120358     -152.973770      -49.502190
 H         -56.062782     -152.362259      -53.129631
 H         -56.428478     -151.437302      -51.687012
 H         -54.706013     -154.827072      -50.380772
 H         -54.839684     -154.283340      -48.745884
 H         -53.914371     -151.352814      -51.862587
 H         -54.050758     -153.068100      -52.345577
 H         -53.299458     -152.875443      -49.836575
 H         -54.558876     -151.686111      -49.586048
