20
 generated by VMD
 C         -40.606865     -106.353378      -37.193905
 N         -39.692970     -106.750565      -37.763985
 H         -38.508442     -108.116936      -34.714771
 H         -41.314751     -106.074768      -36.434074
 C         -39.099064     -108.603020      -33.917671
 C         -38.605934     -109.808182      -33.168797
 C         -40.404976     -108.846321      -34.483486
 C         -39.538754     -110.219498      -32.025150
 C         -41.471542     -109.218765      -33.421558
 C         -40.990231     -110.476692      -32.472878
 H         -37.605217     -109.844269      -32.899639
 H         -38.654617     -110.678795      -33.838547
 H         -40.744637     -107.971512      -35.112152
 H         -40.365768     -109.682701      -35.205349
 H         -39.408005     -109.396667      -31.243658
 H         -39.135078     -111.146355      -31.567150
 H         -42.446442     -109.393745      -33.802624
 H         -41.772263     -108.327927      -32.824650
 H         -41.582748     -110.607559      -31.650475
 H         -40.954227     -111.486153      -33.031197
