20
 generated by VMD
 C         -40.661079     -100.009079      -29.682808
 N         -40.276695     -100.229004      -28.594851
 H         -37.183651      -99.972672      -30.536314
 H         -41.109051     -100.074944      -30.657482
 C         -36.310581      -99.425323      -30.828766
 C         -35.939629      -99.310226      -32.209267
 C         -35.377357      -99.242935      -29.699017
 C         -34.815723      -98.335251      -32.436993
 C         -34.331833      -98.203903      -30.050648
 C         -33.768883      -98.423058      -31.391918
 H         -36.858780      -99.078125      -32.775246
 H         -35.547935     -100.299477      -32.579296
 H         -35.924389      -98.784935      -28.848415
 H         -34.978516     -100.230110      -29.322395
 H         -35.419285      -97.367516      -32.338776
 H         -34.404484      -98.251236      -33.468338
 H         -33.518841      -98.222748      -29.357849
 H         -34.927368      -97.244469      -30.092154
 H         -32.983566      -97.604263      -31.600006
 H         -33.294621      -99.350967      -31.520109
