20
 generated by VMD
 C         -58.818974     -158.946396      -57.373974
 N         -59.009327     -158.162613      -58.171417
 H         -59.533428     -159.477142      -54.421452
 H         -58.667641     -159.721451      -56.673649
 C         -59.538746     -160.281982      -53.688328
 C         -58.500763     -160.277557      -52.637123
 C         -60.535072     -161.346283      -53.710899
 C         -59.015148     -160.873459      -51.385445
 C         -61.151333     -161.681244      -52.336231
 C         -60.077480     -161.908188      -51.339539
 H         -58.256805     -159.244873      -52.410797
 H         -57.515102     -160.831116      -53.026535
 H         -61.280289     -161.039566      -54.439152
 H         -60.157425     -162.245163      -54.174488
 H         -59.241234     -160.184158      -50.653080
 H         -58.141624     -161.295258      -50.715229
 H         -61.815071     -162.509781      -52.442333
 H         -61.755001     -160.859756      -51.961727
 H         -60.534389     -162.114349      -50.368641
 H         -59.716064     -163.006180      -51.566914
