20
 generated by VMD
 C         -50.070282     -142.950989      -45.160351
 N         -48.931431     -143.265701      -45.417198
 H         -51.992989     -140.279938      -45.433159
 H         -51.094456     -142.611481      -45.106941
 C         -52.636509     -140.820129      -46.163719
 C         -52.112080     -141.070786      -47.565536
 C         -54.068077     -140.627029      -46.000130
 C         -52.871399     -142.080780      -48.359478
 C         -54.857166     -141.749664      -46.784050
 C         -54.460712     -141.870422      -48.319683
 H         -51.022518     -141.370270      -47.456772
 H         -52.199532     -140.103928      -48.179741
 H         -54.314846     -140.665344      -44.943737
 H         -54.211800     -139.592102      -46.304028
 H         -52.806492     -143.190277      -47.916763
 H         -52.408424     -142.087723      -49.426449
 H         -55.967239     -141.681442      -46.707493
 H         -54.575642     -142.630600      -46.137177
 H         -54.924316     -142.843582      -48.805714
 H         -54.760002     -140.886032      -48.877178
