20
 generated by VMD
 C         -58.518780     -158.945297      -58.119640
 N         -59.030216     -159.452377      -57.152142
 H         -58.832245     -160.871689      -54.886765
 H         -58.007675     -158.512451      -58.962635
 C         -59.376896     -161.091217      -54.013443
 C         -58.682777     -161.335495      -52.712200
 C         -60.720364     -161.726212      -54.172874
 C         -59.651993     -161.283951      -51.551525
 C         -61.534451     -161.808716      -52.843029
 C         -60.726875     -162.248932      -51.660339
 H         -57.852703     -160.634109      -52.589863
 H         -58.307964     -162.430344      -52.727688
 H         -61.268425     -161.070007      -54.910770
 H         -60.591385     -162.669891      -54.557545
 H         -59.935810     -160.182617      -51.217663
 H         -59.196243     -161.473541      -50.603451
 H         -62.257706     -162.638306      -52.917160
 H         -62.069244     -160.846603      -52.583748
 H         -61.380383     -162.522400      -50.755310
 H         -60.453819     -163.285538      -51.878250
