20
 generated by VMD
 C         -41.954647     -101.840767      -33.586269
 N         -40.867802     -101.819901      -33.908752
 H         -39.239555     -103.784500      -32.520435
 H         -42.944553     -101.514206      -33.434158
 C         -38.122131     -103.677963      -32.282822
 C         -36.902706     -103.633102      -33.075649
 C         -37.968109     -104.223648      -30.855957
 C         -35.761627     -102.858734      -32.371937
 C         -36.693626     -103.696709      -30.195513
 C         -35.375660     -103.506516      -31.060991
 H         -37.243576     -103.107208      -33.946011
 H         -36.527313     -104.638779      -33.371227
 H         -38.880836     -103.881859      -30.336128
 H         -37.938732     -105.365639      -30.898176
 H         -36.123089     -101.796036      -32.194355
 H         -34.826836     -102.780533      -33.091373
 H         -36.381428     -104.486794      -29.415243
 H         -36.926331     -102.823227      -29.664127
 H         -34.590366     -102.936790      -30.405109
 H         -34.916706     -104.442383      -31.381935
