20
 generated by VMD
 C         -45.295834     -123.179260      -35.402817
 N         -45.799923     -124.183624      -35.258732
 H         -44.975777     -122.298225      -38.369122
 H         -44.911194     -122.188423      -35.731895
 C         -44.757717     -121.586449      -39.080746
 C         -43.429596     -121.402847      -39.661057
 C         -45.944767     -120.754852      -39.541195
 C         -43.309475     -120.860558      -41.015881
 C         -45.861824     -120.167595      -40.927189
 C         -44.414085     -119.782043      -41.314068
 H         -42.877625     -122.394295      -39.463291
 H         -42.894604     -120.686279      -39.097782
 H         -46.878067     -121.327240      -39.680630
 H         -46.135021     -119.938072      -38.672878
 H         -43.521378     -121.659714      -41.631683
 H         -42.269978     -120.633690      -41.354401
 H         -46.374527     -119.279381      -40.860817
 H         -46.199306     -120.881523      -41.660072
 H         -44.287537     -119.472214      -42.391148
 H         -44.125885     -118.893242      -40.680618
