20
 generated by VMD
 C         -44.206699     -121.800018      -35.894047
 N         -43.810963     -120.707726      -35.809711
 H         -44.899956     -122.532768      -39.505337
 H         -44.548313     -122.870911      -36.049084
 C         -44.825954     -121.507286      -39.609825
 C         -43.377254     -120.949448      -39.660370
 C         -45.882332     -120.656815      -39.045101
 C         -43.280418     -119.632545      -40.171684
 C         -45.756214     -119.246994      -39.511379
 C         -44.305885     -118.687729      -39.383308
 H         -42.802193     -121.623581      -40.201714
 H         -42.930492     -121.002335      -38.701141
 H         -46.829250     -121.023407      -39.453140
 H         -46.053123     -120.543884      -37.927841
 H         -43.581161     -119.725052      -41.228642
 H         -42.253426     -119.078178      -40.253998
 H         -46.355232     -118.429764      -38.905357
 H         -46.051426     -118.946838      -40.548038
 H         -44.391460     -117.644646      -39.828964
 H         -44.056931     -118.711494      -38.310425
