20
 generated by VMD
 C         -58.866913     -168.479431      -54.982803
 N         -57.691296     -168.737885      -54.932327
 H         -61.936695     -168.649780      -55.780991
 H         -59.941029     -168.292160      -55.070354
 C         -62.443565     -167.840149      -56.298473
 C         -62.725689     -167.951187      -57.691269
 C         -62.849476     -166.509430      -55.722561
 C         -64.084427     -167.582016      -58.070148
 C         -64.265587     -166.207474      -56.007423
 C         -64.512054     -166.203171      -57.535595
 H         -62.482975     -169.139542      -57.982037
 H         -62.052258     -167.350037      -58.208481
 H         -62.634262     -166.591736      -54.695286
 H         -62.164532     -165.714294      -55.930862
 H         -64.836342     -168.313904      -57.651867
 H         -64.226807     -167.575256      -59.191189
 H         -64.490318     -165.146606      -55.598164
 H         -65.044167     -167.064850      -55.539730
 H         -65.521492     -166.043671      -57.812687
 H         -63.941715     -165.359283      -57.913597
