20
 generated by VMD
 C         -45.120560     -122.882370      -35.420822
 N         -45.546486     -123.944290      -35.128799
 H         -45.086136     -122.652184      -38.687698
 H         -44.701500     -121.935730      -35.545551
 C         -44.892246     -121.710976      -39.216057
 C         -43.392975     -121.403770      -39.656662
 C         -45.986168     -120.702721      -39.538239
 C         -43.323593     -120.685974      -40.933365
 C         -45.781303     -120.030106      -40.904568
 C         -44.372967     -119.552986      -41.057804
 H         -42.610001     -122.175438      -39.627632
 H         -43.024609     -120.696320      -38.787693
 H         -47.002533     -121.093216      -39.458126
 H         -45.902863     -120.001610      -38.754452
 H         -43.426159     -121.448212      -41.822430
 H         -42.299492     -120.397568      -41.145866
 H         -46.634991     -119.255348      -40.929844
 H         -46.098442     -120.693176      -41.729698
 H         -44.389938     -119.059074      -42.016006
 H         -44.274952     -118.845184      -40.235912
