20
 generated by VMD
 C         -69.721794     -181.036438      -61.221272
 N         -69.178276     -180.338303      -62.002010
 H         -66.762863     -179.782776      -59.391483
 H         -70.104675     -181.665955      -60.456535
 C         -66.272385     -178.946671      -59.787201
 C         -65.496925     -179.131805      -61.091995
 C         -65.784531     -177.822159      -58.845062
 C         -65.290260     -177.836334      -61.766476
 C         -65.384209     -176.554993      -59.612099
 C         -64.542793     -176.982788      -60.746597
 H         -66.056656     -179.800400      -61.808399
 H         -64.632904     -179.791122      -60.846233
 H         -66.542740     -177.593658      -58.021973
 H         -64.911797     -178.270309      -58.362598
 H         -66.242058     -177.273071      -61.917915
 H         -64.590691     -177.873703      -62.580502
 H         -64.762863     -175.851578      -59.047470
 H         -66.348679     -176.048584      -59.803543
 H         -64.348335     -175.953384      -61.227882
 H         -63.441345     -177.370102      -60.483219
