20
 generated by VMD
 C         -21.989285      -55.459053      -17.590605
 N         -21.156214      -55.821587      -18.274233
 H         -21.517517      -56.958080      -14.307295
 H         -22.531845      -55.268677      -16.592844
 C         -21.355993      -58.060211      -14.363062
 C         -21.400888      -58.843384      -13.007290
 C         -21.206434      -58.621689      -15.695107
 C         -20.937788      -60.261799      -13.226861
 C         -20.273926      -59.831631      -15.698766
 C         -19.854584      -60.292629      -14.348268
 H         -22.417521      -58.841110      -12.651187
 H         -20.720894      -58.447308      -12.283437
 H         -22.239906      -58.940449      -16.095531
 H         -20.891214      -57.861393      -16.404139
 H         -21.818140      -60.901745      -13.462467
 H         -20.448154      -60.684750      -12.325726
 H         -19.348780      -59.655201      -16.328121
 H         -20.792454      -60.707401      -16.162668
 H         -19.761242      -61.398087      -14.476547
 H         -18.884079      -59.902561      -13.969667
