20
 generated by VMD
 C         -25.716064      -71.250099      -16.885828
 N         -26.110388      -72.148735      -16.267691
 H         -23.964766      -68.747765      -18.795713
 H         -25.158165      -70.489517      -17.515905
 C         -24.548483      -69.288696      -19.551329
 C         -23.988779      -70.394691      -20.451307
 C         -25.844707      -68.589111      -20.154404
 C         -25.053764      -71.222557      -21.257057
 C         -26.841522      -69.555191      -21.003994
 C         -26.024490      -70.295219      -22.127514
 H         -23.326862      -71.025002      -19.771471
 H         -23.260048      -69.814301      -21.144138
 H         -26.394434      -68.136116      -19.348522
 H         -25.433455      -67.806969      -20.899157
 H         -25.679659      -71.910599      -20.655867
 H         -24.600060      -71.893883      -21.952236
 H         -27.437412      -68.809357      -21.467403
 H         -27.341801      -70.331963      -20.382622
 H         -26.803495      -70.800049      -22.707859
 H         -25.429899      -69.528366      -22.676468
