20
 generated by VMD
 C         -28.987991      -74.253143      -19.522844
 N         -30.085545      -74.372475      -19.756258
 H         -25.870089      -73.293747      -18.780550
 H         -27.904417      -74.470940      -19.191999
 C         -25.840139      -73.252274      -19.838562
 C         -25.472446      -74.427719      -20.736401
 C         -25.697695      -71.887589      -20.419638
 C         -25.853712      -74.348763      -22.164154
 C         -26.081470      -71.820053      -21.925993
 C         -25.604433      -72.964958      -22.752512
 H         -25.892254      -75.268700      -20.340509
 H         -24.367401      -74.550667      -20.636786
 H         -26.239319      -71.130470      -19.884766
 H         -24.690613      -71.498192      -20.462774
 H         -26.926933      -74.650856      -22.214731
 H         -25.415148      -75.066078      -22.848070
 H         -25.771955      -70.856125      -22.378857
 H         -27.291502      -71.861778      -21.926615
 H         -26.078575      -72.974411      -23.704920
 H         -24.545746      -72.772224      -22.889160
