20
 generated by VMD
 C         -77.950401     -209.960632      -76.421867
 N         -77.355217     -210.962570      -76.148636
 H         -80.318375     -212.649521      -74.920853
 H         -78.529129     -209.148529      -76.688019
 C         -80.175400     -213.143509      -73.964752
 C         -78.692238     -213.122131      -73.570572
 C         -81.282387     -213.857834      -73.189896
 C         -78.627274     -212.774185      -72.060326
 C         -81.006813     -213.783157      -71.673546
 C         -79.529884     -213.899139      -71.353455
 H         -78.049454     -212.401459      -74.135094
 H         -78.345192     -214.167892      -73.703041
 H         -82.311844     -213.627045      -73.392120
 H         -81.289886     -214.976715      -73.561203
 H         -78.885406     -211.700806      -71.925728
 H         -77.607437     -212.930161      -71.824158
 H         -81.504105     -214.601486      -71.241051
 H         -81.459442     -212.781891      -71.249733
 H         -79.362587     -214.048706      -70.195000
 H         -79.179031     -214.861710      -71.805710
