20
 generated by VMD
 C         -59.849751     -157.017136      -56.690643
 N         -60.949341     -156.593948      -56.622196
 H         -59.712925     -157.526031      -53.535549
 H         -58.819649     -157.298721      -56.652725
 C         -59.052341     -157.884720      -52.652031
 C         -57.815460     -157.129364      -52.130531
 C         -59.059811     -159.331345      -52.508675
 C         -57.278168     -157.599792      -50.829945
 C         -58.500057     -159.777084      -51.107201
 C         -57.168827     -159.107544      -50.778610
 H         -58.056042     -156.099716      -52.237297
 H         -57.000015     -157.392471      -52.915440
 H         -60.164013     -159.624893      -52.703091
 H         -58.470707     -159.960510      -53.195877
 H         -58.062813     -157.411942      -49.948421
 H         -56.282516     -157.206467      -50.627724
 H         -58.335125     -160.809235      -51.306614
 H         -59.238827     -159.662827      -50.335133
 H         -56.706696     -159.512558      -49.762928
 H         -56.512012     -159.401794      -51.548973
