20
 generated by VMD
 C         -47.716003     -124.747459      -38.195877
 N         -47.225639     -125.627975      -38.742825
 H         -45.404957     -123.104385      -37.816433
 H         -48.384056     -124.001869      -37.932247
 C         -44.924427     -122.784294      -38.751358
 C         -43.812141     -123.469307      -39.445271
 C         -45.778378     -121.768105      -39.618332
 C         -44.245285     -123.997986      -40.846027
 C         -46.123840     -122.209755      -40.928242
 C         -44.923851     -122.909378      -41.686039
 H         -43.355858     -124.375732      -38.981804
 H         -43.069592     -122.782104      -39.528782
 H         -46.645794     -121.395851      -39.147972
 H         -45.078163     -120.896164      -39.703262
 H         -44.976025     -124.785576      -40.698715
 H         -43.410103     -124.430916      -41.298489
 H         -46.573006     -121.424278      -41.564510
 H         -46.826645     -123.065666      -41.018280
 H         -45.139156     -123.224846      -42.682415
 H         -44.184334     -122.136772      -41.764645
