20
 generated by VMD
 C         -31.254091      -75.721092      -21.590324
 N         -32.336529      -75.288681      -21.356913
 H         -27.836504      -75.185326      -20.074568
 H         -30.256672      -76.163231      -21.624294
 C         -26.915619      -75.222008      -20.597712
 C         -26.468290      -76.499672      -21.439137
 C         -25.953323      -74.085388      -20.412800
 C         -25.880308      -75.935661      -22.774927
 C         -25.390348      -73.682945      -21.758459
 C         -24.852882      -74.877762      -22.595018
 H         -27.370569      -77.099640      -21.620260
 H         -25.632767      -76.961082      -20.952662
 H         -26.601933      -73.344879      -19.936869
 H         -25.134554      -74.414574      -19.654476
 H         -26.751196      -75.427071      -23.303444
 H         -25.538158      -76.800255      -23.410095
 H         -24.607527      -72.944633      -21.580294
 H         -26.245752      -73.196220      -22.251669
 H         -24.280827      -74.497551      -23.470135
 H         -23.957804      -75.292114      -22.050638
