20
 generated by VMD
 C         -50.850040     -129.752747      -46.119484
 N         -50.836826     -130.366974      -45.165569
 H         -48.351768     -131.477707      -44.382931
 H         -50.666237     -128.914780      -46.710133
 C         -47.965340     -131.602737      -43.332287
 C         -48.286182     -132.878433      -42.458473
 C         -47.924988     -130.346237      -42.503643
 C         -47.500751     -132.841431      -41.096466
 C         -47.223408     -130.401489      -41.190895
 C         -47.746899     -131.578506      -40.358551
 H         -48.216423     -133.831253      -43.055573
 H         -49.306179     -132.771973      -42.192287
 H         -47.483078     -129.582489      -43.056995
 H         -48.930717     -130.058777      -42.397964
 H         -46.496174     -132.973984      -41.510563
 H         -47.835865     -133.719910      -40.561268
 H         -47.426666     -129.578171      -40.513973
 H         -46.170490     -130.602631      -41.283493
 H         -47.256832     -131.465729      -39.325516
 H         -48.816986     -131.487518      -40.117168
