20
 generated by VMD
 C         -22.193489      -52.239693      -11.511565
 N         -21.928732      -52.796986      -10.490360
 H         -19.894613      -52.527985      -14.318039
 H         -22.171043      -51.737778      -12.299464
 C         -18.919451      -52.194199      -13.904877
 C         -17.889988      -51.619354      -14.811341
 C         -18.574499      -52.215866      -12.422762
 C         -16.469004      -52.109444      -14.512156
 C         -17.165186      -51.567284      -12.149467
 C         -16.142582      -52.210678      -13.038138
 H         -18.078487      -50.524849      -14.690168
 H         -18.141083      -51.864960      -15.901143
 H         -19.312849      -51.654938      -11.819104
 H         -18.589010      -53.229839      -12.081266
 H         -15.803793      -51.378117      -14.947556
 H         -16.331020      -53.023129      -15.076339
 H         -16.947065      -51.729847      -11.096650
 H         -17.173788      -50.434010      -12.327550
 H         -15.142129      -51.777164      -12.942203
 H         -16.140884      -53.266167      -12.707686
