20
 generated by VMD
 C         -61.336952     -156.174454      -55.093731
 N         -60.373795     -155.783813      -55.644848
 H         -59.609699     -156.375015      -51.576881
 H         -62.295731     -156.442917      -54.691704
 C         -58.567192     -156.394821      -51.293819
 C         -57.757988     -155.113129      -51.012512
 C         -57.842915     -157.509445      -51.994816
 C         -56.398018     -155.374710      -50.380455
 C         -56.494717     -157.722382      -51.346642
 C         -55.607815     -156.562454      -51.200199
 H         -58.352272     -154.556824      -50.241493
 H         -57.718716     -154.477249      -51.852196
 H         -58.560764     -158.473785      -52.006966
 H         -57.744919     -157.167297      -53.034370
 H         -56.564629     -155.602951      -49.308468
 H         -55.763943     -154.437088      -50.505169
 H         -55.978134     -158.548080      -51.891655
 H         -56.771358     -158.098373      -50.414375
 H         -54.752842     -156.830948      -50.638958
 H         -55.311203     -156.112915      -52.227421
