20
 generated by VMD
 C         -46.824062     -125.119400      -38.243324
 N         -47.951714     -125.248924      -37.957882
 H         -44.580086     -121.875664      -37.682186
 H         -45.893040     -124.738754      -38.539795
 C         -44.614994     -122.087776      -38.809120
 C         -43.484032     -122.756912      -39.553280
 C         -45.746723     -121.503677      -39.463047
 C         -44.009335     -123.462555      -40.817959
 C         -46.171646     -122.073074      -40.795856
 C         -44.985744     -122.581985      -41.538349
 H         -43.013199     -123.555672      -38.963680
 H         -42.623646     -121.986671      -39.684906
 H         -46.633991     -121.491493      -38.775784
 H         -45.437099     -120.502434      -39.610531
 H         -44.518658     -124.362427      -40.749565
 H         -43.174961     -123.466385      -41.532658
 H         -46.721664     -121.300835      -41.411972
 H         -46.805233     -123.059212      -40.739655
 H         -45.326725     -123.146629      -42.408417
 H         -44.326477     -121.761406      -41.929924
