20
 generated by VMD
 C         -31.456383      -76.932953      -24.897793
 N         -32.063732      -77.046127      -25.874693
 H         -28.938507      -76.690918      -22.199604
 H         -30.666822      -76.833313      -24.098295
 C         -28.520193      -77.698921      -22.170166
 C         -27.461735      -77.893997      -23.247013
 C         -28.793245      -78.907310      -21.205011
 C         -26.239040      -78.644958      -22.677599
 C         -27.527859      -79.347298      -20.519056
 C         -26.434084      -79.771774      -21.625761
 H         -27.229086      -77.089714      -23.854193
 H         -27.915274      -78.559540      -23.928738
 H         -29.588396      -78.621666      -20.522799
 H         -29.115000      -79.751572      -21.770519
 H         -25.668472      -77.853317      -22.193628
 H         -25.637867      -79.022903      -23.487837
 H         -27.759821      -80.236839      -19.924282
 H         -27.100176      -78.600029      -19.903938
 H         -25.460175      -79.960297      -21.065329
 H         -26.820532      -80.631393      -22.121525
