20
 generated by VMD
 C         -60.752769     -153.280334      -52.313274
 N         -61.170914     -153.791473      -51.293320
 H         -57.508217     -154.109192      -51.318523
 H         -60.316441     -152.870880      -53.250320
 C         -56.689152     -153.487930      -50.984325
 C         -56.104492     -153.706787      -49.642265
 C         -56.277504     -152.176559      -51.710152
 C         -54.605240     -153.632050      -49.827255
 C         -54.742840     -151.860947      -51.703876
 C         -54.110588     -152.219955      -50.336914
 H         -56.524750     -154.657593      -49.337242
 H         -56.435291     -153.088852      -48.784668
 H         -56.438492     -152.446701      -52.771606
 H         -56.882984     -151.351242      -51.386482
 H         -54.321983     -154.330200      -50.678585
 H         -54.079002     -153.810318      -48.804726
 H         -54.587524     -150.917770      -52.014805
 H         -54.187267     -152.406891      -52.519154
 H         -53.008896     -152.168762      -50.406200
 H         -54.633797     -151.504501      -49.673374
