20
 generated by VMD
 C         -50.205147     -129.336472      -43.068653
 N         -50.599068     -128.329666      -43.500786
 H         -48.651176     -128.103882      -39.927235
 H         -49.873100     -130.247711      -42.587360
 C         -47.651489     -128.005219      -40.315289
 C         -46.462204     -128.860382      -39.905113
 C         -47.283581     -126.663361      -41.038731
 C         -45.571117     -129.057968      -41.140823
 C         -46.225330     -126.953644      -42.115303
 C         -45.095024     -127.706039      -41.552429
 H         -46.912323     -129.907837      -39.710556
 H         -45.902905     -128.476913      -39.056858
 H         -48.257332     -126.153397      -41.394199
 H         -46.868641     -126.004097      -40.348312
 H         -46.048546     -129.646332      -41.870281
 H         -44.730236     -129.619598      -40.835964
 H         -45.941868     -126.002365      -42.468781
 H         -46.701099     -127.456512      -42.978664
 H         -44.318169     -127.659874      -42.267136
 H         -44.707798     -127.119270      -40.691807
