20
 generated by VMD
 C          -7.241758      -23.445116        1.721674
 N          -7.426369      -22.542744        2.340041
 H          -8.927249      -23.497963       -1.422845
 H          -9.340740      -22.489504       -2.714880
 C          -8.520266      -22.796406       -2.087643
 C          -7.623224      -23.529167       -3.117928
 C          -7.798571      -21.634480       -1.332204
 C          -6.923733      -22.594818       -4.134073
 C          -7.112319      -20.668394       -2.384036
 C          -6.246881      -21.458014       -3.428425
 H          -8.154890      -24.439013       -3.544726
 H          -6.827808      -24.052038       -2.639148
 H          -8.511469      -20.991592       -0.726730
 H          -7.026910      -22.135519       -0.730583
 H          -7.713008      -22.134445       -4.691455
 H          -6.227657      -23.163628       -4.744190
 H          -6.441418      -19.934843       -1.863334
 H          -7.944015      -20.211723       -2.960454
 H          -5.799006      -20.752977       -4.136140
 H          -5.464625      -21.884079       -2.819824
