20
 generated by VMD
 C         -70.836632     -198.819534      -64.374283
 N         -70.221054     -198.477737      -65.299492
 H         -72.307182     -196.478134      -66.639404
 H         -71.407318     -199.262512      -63.578899
 C         -73.112190     -195.890961      -67.071663
 C         -73.304497     -194.472824      -66.549126
 C         -73.919281     -196.444885      -68.183464
 C         -73.243950     -193.532532      -67.764511
 C         -74.775795     -195.374008      -68.797928
 C         -74.112465     -193.964905      -69.036827
 H         -72.453377     -194.315506      -65.846596
 H         -74.184998     -194.370941      -66.046921
 H         -73.279930     -196.853531      -68.992867
 H         -74.535118     -197.378311      -68.021225
 H         -72.175941     -193.435867      -68.032829
 H         -73.683022     -192.568771      -67.369469
 H         -75.544418     -195.007462      -68.091621
 H         -75.332352     -195.759033      -69.633606
 H         -73.366249     -194.046768      -69.765251
 H         -74.760468     -192.976425      -69.320595
