20
 generated by VMD
 C         -11.552176      -33.551487       -8.929146
 N         -10.458974      -33.329258       -8.848784
 H         -12.321259      -34.938381       -7.545736
 H         -12.647615      -34.924271       -5.819498
 C         -12.632138      -35.605652       -6.654118
 C         -11.617873      -36.676376       -6.359613
 C         -14.014606      -36.163033       -7.008780
 C         -12.082760      -37.704945       -5.430048
 C         -14.552975      -37.132313       -5.931940
 C         -13.536015      -38.215107       -5.671222
 H         -10.625668      -36.313126       -6.104057
 H         -11.472754      -37.182690       -7.356814
 H         -14.746620      -35.393097       -7.227229
 H         -13.826427      -36.743382       -7.928729
 H         -12.048536      -37.392319       -4.388154
 H         -11.439260      -38.628521       -5.368485
 H         -15.534622      -37.618923       -6.287271
 H         -14.735154      -36.602757       -4.992535
 H         -13.882659      -38.784790       -4.826412
 H         -13.379580      -38.880104       -6.560564
