20
 generated by VMD
 C         -60.898052     -154.545486      -51.219322
 N         -61.108692     -154.152283      -52.310577
 H         -57.358513     -154.106949      -52.947845
 H         -60.585678     -154.917252      -50.276146
 C         -56.785442     -153.642746      -52.152779
 C         -57.152996     -153.938950      -50.739086
 C         -55.558052     -152.795975      -52.389858
 C         -55.970028     -154.264893      -49.838642
 C         -54.310905     -153.106415      -51.424183
 C         -54.753689     -153.266052      -49.974957
 H         -57.965843     -154.703690      -50.657505
 H         -57.655090     -152.944275      -50.415157
 H         -55.207493     -152.996399      -53.403812
 H         -55.770229     -151.697800      -52.292984
 H         -55.676506     -155.294052      -49.994839
 H         -56.532322     -154.256546      -48.884350
 H         -53.743092     -152.258179      -51.621468
 H         -53.598740     -153.977142      -51.637856
 H         -53.793606     -153.569046      -49.381939
 H         -55.193558     -152.382263      -49.593262
