20
 generated by VMD
 C         -20.306664      -57.280148      -16.826435
 N         -19.248558      -56.983570      -17.073946
 H         -22.436859      -59.760464      -17.529953
 H         -21.396801      -57.552353      -16.438253
 C         -22.420418      -60.328602      -16.622206
 C         -23.705910      -61.067844      -16.191137
 C         -21.076408      -60.933395      -16.308979
 C         -23.527309      -61.520565      -14.777743
 C         -21.355104      -62.321972      -15.681367
 C         -22.094643      -62.002697      -14.396234
 H         -23.787956      -61.962414      -16.829189
 H         -24.615101      -60.445148      -16.401892
 H         -20.606483      -60.987335      -17.280214
 H         -20.507961      -60.248470      -15.648380
 H         -24.183966      -62.340363      -14.521661
 H         -23.789318      -60.685722      -14.195201
 H         -20.622986      -63.076511      -15.533965
 H         -22.016899      -62.800083      -16.433710
 H         -22.248901      -62.973225      -13.961633
 H         -21.518703      -61.295143      -13.816342
