20
 generated by VMD
 C         -59.696678     -152.365616      -51.054832
 N         -60.599945     -153.156235      -50.966545
 H         -56.674931     -151.993637      -48.683006
 H         -58.909527     -151.554642      -50.979877
 C         -56.001545     -151.653152      -49.435856
 C         -54.975491     -152.644608      -49.776497
 C         -55.760201     -150.225067      -49.478218
 C         -54.098610     -152.098984      -50.858059
 C         -55.115955     -149.827362      -50.840763
 C         -53.867302     -150.621536      -50.976368
 H         -55.367222     -153.626297      -50.052044
 H         -54.441292     -152.929062      -48.911758
 H         -56.749619     -149.728683      -49.549870
 H         -55.113411     -149.798264      -48.648666
 H         -54.542198     -152.358719      -51.808510
 H         -53.158875     -152.691589      -50.924835
 H         -54.846992     -148.766830      -50.809254
 H         -55.741219     -150.115540      -51.738926
 H         -53.399055     -150.585022      -51.991360
 H         -52.980003     -150.321152      -50.448059
