20
 generated by VMD
 C         -40.934109     -103.580589      -35.694859
 N         -41.426605     -104.622368      -35.606689
 H         -38.698296     -104.128235      -33.852127
 H         -40.131565     -102.822769      -35.687584
 C         -38.509659     -104.966194      -33.181686
 C         -37.211063     -104.937714      -32.603951
 C         -39.418728     -106.166557      -32.967987
 C         -36.821011     -105.723732      -31.346794
 C         -38.972599     -106.952606      -31.602987
 C         -37.427822     -107.107742      -31.476742
 H         -36.972633     -103.783417      -32.579189
 H         -36.609859     -105.310165      -33.481918
 H         -40.385139     -105.727615      -32.836853
 H         -39.464909     -106.828400      -33.863838
 H         -37.237900     -105.187355      -30.503691
 H         -35.772572     -105.878799      -31.269230
 H         -39.449093     -107.981888      -31.651043
 H         -39.447933     -106.331841      -30.872967
 H         -37.163948     -107.568176      -30.479755
 H         -37.053928     -107.730705      -32.269028
