20
 generated by VMD
 C         -57.524876     -164.238510      -56.661404
 N         -57.272873     -163.209976      -57.222763
 H         -59.836849     -165.051620      -54.478786
 H         -57.913433     -165.125793      -56.141830
 C         -60.862453     -164.941742      -54.674122
 C         -61.789120     -165.433243      -53.550678
 C         -61.334709     -164.412170      -55.962299
 C         -63.216866     -164.922653      -53.660236
 C         -62.805332     -163.849579      -55.776634
 C         -63.713570     -164.759155      -55.025928
 H         -61.371422     -165.029907      -52.583969
 H         -61.676960     -166.523102      -53.280102
 H         -60.779873     -163.508514      -56.335690
 H         -61.252251     -165.128540      -56.758255
 H         -63.144558     -163.921402      -53.190079
 H         -63.922932     -165.635727      -53.077991
 H         -63.171631     -163.426620      -56.683758
 H         -62.607960     -162.837311      -55.357437
 H         -64.659851     -164.137085      -55.007618
 H         -63.894566     -165.665833      -55.651321
