20
 generated by VMD
 C         -40.870182     -104.000504      -36.877068
 N         -41.152214     -104.933739      -36.258541
 H         -39.139454     -105.446220      -34.326481
 H         -40.449230     -103.200272      -37.434929
 C         -38.885429     -106.070267      -33.398907
 C         -37.645031     -105.929512      -32.617199
 C         -39.655655     -107.383934      -33.318176
 C         -37.690563     -106.759071      -31.327507
 C         -39.556999     -108.291641      -32.034019
 C         -38.104496     -108.215645      -31.559942
 H         -37.442642     -104.825554      -32.407375
 H         -36.771278     -106.368416      -33.164631
 H         -40.729610     -107.360641      -33.556675
 H         -39.279938     -107.972595      -34.131905
 H         -38.441257     -106.328560      -30.578402
 H         -36.619564     -106.645691      -30.966082
 H         -39.924698     -109.379791      -31.942570
 H         -40.126038     -107.876060      -31.200706
 H         -38.064259     -108.715851      -30.642174
 H         -37.411980     -108.809471      -32.295822
