20
 generated by VMD
 C         -33.689911      -96.235649      -25.236242
 N         -32.991707      -97.167366      -25.191288
 H         -34.857414      -93.345818      -27.435339
 H         -34.380367      -95.315498      -25.139044
 C         -34.863022      -93.493790      -28.500610
 C         -36.027897      -94.075951      -29.175159
 C         -33.544430      -93.366745      -29.200871
 C         -36.215801      -93.136887      -30.465960
 C         -33.677410      -92.564690      -30.498686
 C         -34.937897      -93.083557      -31.353889
 H         -36.858700      -93.982162      -28.501257
 H         -35.963989      -95.169670      -29.471104
 H         -32.870533      -92.825073      -28.562109
 H         -33.084255      -94.367584      -29.222969
 H         -36.674416      -92.203079      -30.171986
 H         -37.074780      -93.636261      -31.000736
 H         -32.795315      -92.697693      -31.075977
 H         -33.835403      -91.453560      -30.190880
 H         -35.204338      -92.439499      -32.197559
 H         -34.771523      -94.010765      -31.725378
