20
 generated by VMD
 C         -75.006355     -201.576767      -66.632576
 N         -75.105682     -201.722397      -65.484047
 H         -76.224495     -199.583710      -68.954041
 H         -74.679207     -201.402679      -67.612923
 C         -75.357063     -198.942551      -69.035324
 C         -74.977013     -197.768829      -68.229401
 C         -74.297455     -199.576065      -69.950897
 C         -73.415932     -197.711044      -67.991737
 C         -73.114525     -198.572357      -70.414513
 C         -72.631821     -197.640411      -69.335678
 H         -75.600388     -197.611481      -67.425980
 H         -75.218849     -196.869888      -68.876991
 H         -73.755821     -200.291489      -69.338638
 H         -74.842384     -199.952896      -70.885773
 H         -73.236572     -198.664993      -67.521835
 H         -73.223289     -196.824219      -67.424034
 H         -73.588013     -198.063126      -71.255775
 H         -72.259239     -199.103180      -70.747787
 H         -71.535774     -197.714981      -69.117134
 H         -72.662842     -196.598877      -69.722923
