20
 generated by VMD
 C         -48.361431     -136.071472      -46.092312
 N         -47.166622     -136.141830      -45.947968
 H         -51.517265     -135.283981      -46.008087
 H         -49.339485     -136.052643      -46.530830
 C         -51.637154     -136.124893      -45.361851
 C         -52.277340     -137.318726      -46.000832
 C         -51.416401     -135.965225      -43.884678
 C         -51.856701     -138.615311      -45.277321
 C         -51.043369     -137.376938      -43.310310
 C         -51.908386     -138.512970      -43.728767
 H         -51.718102     -137.206512      -46.993336
 H         -53.339851     -137.266281      -46.124580
 H         -50.632427     -135.186707      -43.635956
 H         -52.404419     -135.723480      -43.449932
 H         -50.899181     -138.948608      -45.788849
 H         -52.556259     -139.530670      -45.524677
 H         -51.027210     -137.197159      -42.152298
 H         -50.020493     -137.637329      -43.540909
 H         -51.481152     -139.317078      -43.300133
 H         -52.877171     -138.481201      -43.337143
