20
 generated by VMD
 C         -40.516743     -104.348732      -36.345024
 N         -39.605576     -104.966438      -36.691456
 H         -40.296700     -107.326782      -34.946724
 H         -41.404373     -103.731705      -36.191910
 C         -39.796902     -107.643005      -34.017441
 C         -38.718277     -106.816994      -33.453423
 C         -40.033520     -109.029778      -33.546650
 C         -38.516434     -106.937477      -31.935955
 C         -39.864334     -109.146461      -31.936245
 C         -38.557236     -108.415726      -31.605417
 H         -38.904404     -105.706856      -33.790047
 H         -37.783550     -107.112274      -33.973656
 H         -40.953568     -109.361290      -34.067852
 H         -39.189220     -109.603722      -33.975571
 H         -39.346672     -106.394142      -31.392452
 H         -37.536499     -106.484932      -31.589005
 H         -39.801666     -110.168587      -31.581114
 H         -40.760624     -108.653587      -31.568268
 H         -38.560890     -108.604782      -30.434683
 H         -37.778236     -108.962997      -32.013123
