20
 generated by VMD
 C         -28.095692      -81.249596      -27.598133
 N         -29.254217      -81.147339      -27.466583
 H         -29.434891      -82.944695      -25.001905
 H         -26.963017      -81.298302      -27.625572
 C         -30.144409      -83.630791      -24.505911
 C         -30.140509      -83.954147      -22.963615
 C         -30.781246      -84.742279      -25.296946
 C         -31.601299      -84.365105      -22.504456
 C         -32.239162      -85.006729      -24.835884
 C         -32.181007      -85.357536      -23.403957
 H         -29.815504      -83.040329      -22.460306
 H         -29.369986      -84.649971      -22.740377
 H         -30.794283      -84.548439      -26.409267
 H         -30.130846      -85.637032      -25.279593
 H         -32.320431      -83.454163      -22.639832
 H         -31.512981      -84.681229      -21.531288
 H         -32.773235      -85.740509      -25.375839
 H         -32.797012      -84.001709      -24.784985
 H         -33.237392      -85.440201      -23.003731
 H         -31.742771      -86.324898      -23.323782
