20
 generated by VMD
 C         -47.856533     -134.800201      -46.401180
 N         -47.872795     -134.616638      -47.591541
 H         -50.546085     -134.616043      -45.281269
 H         -48.188084     -135.210648      -45.432533
 C         -50.889523     -135.460190      -44.668304
 C         -51.388794     -136.669495      -45.352604
 C         -51.157326     -135.284256      -43.158119
 C         -51.234077     -138.004532      -44.510395
 C         -50.990326     -136.532394      -42.361191
 C         -51.609989     -137.749619      -43.048405
 H         -50.817200     -136.908447      -46.262711
 H         -52.450584     -136.531982      -45.702251
 H         -50.561874     -134.364944      -42.879967
 H         -52.166431     -134.979980      -42.966148
 H         -50.247723     -138.426498      -44.406994
 H         -51.824371     -138.886978      -44.950127
 H         -51.456184     -136.498535      -41.363724
 H         -49.893208     -136.639740      -42.265278
 H         -51.345837     -138.593307      -42.417133
 H         -52.729916     -137.548828      -43.193394
