20
 generated by VMD
 C         -78.623306     -209.618698      -76.864693
 N         -77.738655     -210.000198      -77.468842
 H         -79.734192     -211.447525      -73.957413
 H         -79.427383     -209.178894      -76.288292
 C         -79.467873     -212.124893      -73.206947
 C         -78.055115     -212.354477      -72.691284
 C         -80.569023     -213.089035      -73.010284
 C         -78.260651     -212.713104      -71.152771
 C         -80.821655     -213.446106      -71.541969
 C         -79.406853     -213.699448      -70.849152
 H         -77.510139     -211.380188      -72.615273
 H         -77.523148     -213.106903      -73.260818
 H         -81.497345     -212.838882      -73.564377
 H         -80.266434     -214.043762      -73.590759
 H         -78.511292     -211.836655      -70.500145
 H         -77.298927     -213.174500      -70.829865
 H         -81.480202     -214.264709      -71.427086
 H         -81.170036     -212.469223      -70.982964
 H         -79.538223     -213.669968      -69.757317
 H         -79.090820     -214.629791      -71.293846
