20
 generated by VMD
 C         -10.549842      -37.557312       -8.039720
 N         -10.862363      -36.707630       -7.389852
 H         -12.689094      -39.350384       -8.091821
 H         -13.972247      -39.282356       -6.920533
 C         -13.713433      -39.729027       -7.898663
 C         -13.789847      -41.274330       -7.801870
 C         -14.642111      -39.198078       -9.029038
 C         -15.230064      -41.851780       -7.643619
 C         -16.108688      -39.762619       -8.845060
 C         -16.132275      -41.293205       -8.781194
 H         -13.050951      -41.594406       -7.050916
 H         -13.371854      -41.748890       -8.686216
 H         -14.610220      -38.075558       -9.090783
 H         -14.248814      -39.476051       -9.984650
 H         -15.676371      -41.573933       -6.666558
 H         -15.243029      -42.953606       -7.612253
 H         -16.685759      -39.444813       -9.751721
 H         -16.583458      -39.319721       -7.961421
 H         -17.180323      -41.605614       -8.678825
 H         -15.752610      -41.685337       -9.697572
