20
 generated by VMD
 C         -28.272230      -83.950195      -27.234041
 N         -27.489620      -83.427849      -26.539581
 H         -31.992683      -84.296021      -26.204414
 H         -28.986052      -84.507248      -27.949991
 C         -31.640432      -85.259972      -25.735527
 C         -31.449472      -85.377937      -24.262543
 C         -32.054386      -86.437271      -26.531450
 C         -32.751247      -85.864029      -23.699793
 C         -33.252480      -87.131058      -25.920433
 C         -33.134041      -87.229912      -24.354158
 H         -31.098946      -84.533745      -23.708975
 H         -30.706831      -86.226570      -24.089157
 H         -31.978615      -86.239304      -27.660242
 H         -31.228661      -87.097488      -26.315575
 H         -33.504429      -85.094337      -23.871193
 H         -32.879768      -86.015839      -22.568123
 H         -33.355927      -88.188660      -26.240360
 H         -34.132866      -86.643318      -26.201899
 H         -34.070126      -87.426735      -23.964197
 H         -32.480743      -88.101219      -24.056154
