20
 generated by VMD
 C         -62.930981     -173.553146      -55.570015
 N         -63.413761     -174.168091      -54.739670
 H         -61.544823     -171.670959      -58.793022
 H         -62.492466     -172.875336      -56.290085
 C         -62.495590     -171.093994      -58.785072
 C         -62.756992     -170.019409      -57.778412
 C         -63.752491     -171.776794      -59.067623
 C         -63.700191     -168.921143      -58.300602
 C         -64.897682     -170.801224      -59.641365
 C         -65.099632     -169.484726      -58.727180
 H         -61.801788     -169.540619      -57.480602
 H         -63.260349     -170.440720      -56.897270
 H         -63.640270     -172.493988      -59.951199
 H         -64.312691     -172.223282      -58.222927
 H         -63.245419     -168.637543      -59.257889
 H         -63.774364     -168.081421      -57.664619
 H         -65.848305     -171.360977      -59.883450
 H         -64.463356     -170.355652      -60.635353
 H         -65.600609     -168.752518      -59.290661
 H         -65.653587     -169.631210      -57.792999
