20
 generated by VMD
 C         -52.765842     -146.575119      -44.411762
 N         -51.751759     -146.663559      -45.028473
 H         -53.762806     -145.899246      -46.977673
 H         -53.708954     -146.497238      -43.947216
 C         -53.956177     -145.302307      -47.906403
 C         -52.911369     -145.120728      -48.883541
 C         -54.876808     -144.056488      -47.656506
 C         -53.479324     -144.455704      -50.152557
 C         -55.302528     -143.365189      -48.918198
 C         -54.198200     -143.148514      -49.848354
 H         -52.535542     -146.015228      -49.283672
 H         -52.006317     -144.610718      -48.392677
 H         -55.708691     -144.339005      -46.923840
 H         -54.231434     -143.323807      -47.141308
 H         -54.259914     -145.175476      -50.701187
 H         -52.777515     -144.170105      -50.997696
 H         -55.818581     -142.370010      -48.789543
 H         -56.121250     -144.033142      -49.341747
 H         -54.681980     -142.718674      -50.781452
 H         -53.529423     -142.376160      -49.491230
