20
 generated by VMD
 C         -61.214993     -155.669769      -54.899315
 N         -60.923065     -155.996002      -53.827679
 H         -59.140324     -155.278168      -51.691082
 H         -61.356461     -155.245651      -55.903534
 C         -58.058224     -155.283890      -51.547768
 C         -57.462471     -154.500809      -50.431107
 C         -57.058475     -155.814758      -52.490677
 C         -56.262466     -155.181976      -49.726612
 C         -55.819763     -156.386993      -51.876335
 C         -55.268795     -155.558807      -50.764366
 H         -58.333153     -154.255966      -49.725422
 H         -57.083023     -153.543564      -50.789742
 H         -57.739384     -156.372360      -53.178780
 H         -56.748096     -155.029617      -53.118977
 H         -56.662766     -156.040939      -49.173527
 H         -55.751007     -154.319748      -49.075260
 H         -55.128796     -156.607864      -52.802334
 H         -56.064320     -157.285812      -51.326973
 H         -54.489960     -156.110672      -50.140057
 H         -54.751194     -154.684570      -51.099686
