20
 generated by VMD
 C         -60.045368     -156.604935      -55.663002
 N         -60.905632     -156.044250      -56.145199
 H         -59.772236     -157.461456      -52.779514
 H         -59.309849     -157.159058      -55.136604
 C         -58.767857     -157.925018      -52.876926
 C         -57.627922     -156.995102      -52.641109
 C         -58.503731     -159.322296      -52.362160
 C         -57.414761     -157.027390      -51.163692
 C         -58.148617     -159.345551      -50.901428
 C         -57.108383     -158.278671      -50.535500
 H         -57.811600     -155.946060      -53.054268
 H         -56.532894     -157.221069      -52.992641
 H         -59.360382     -159.886658      -52.709614
 H         -57.592045     -159.792007      -52.913662
 H         -58.345478     -156.629211      -50.707565
 H         -56.568443     -156.353790      -51.048740
 H         -57.953896     -160.401810      -50.521065
 H         -59.091770     -158.968872      -50.347767
 H         -57.221748     -158.056992      -49.429588
 H         -56.125546     -158.689957      -50.887131
