20
 generated by VMD
 C         -20.829630      -52.260643       -9.633453
 N         -21.302652      -52.214165      -10.686040
 H         -19.152792      -49.790249      -11.634421
 H         -20.691978      -52.503830       -8.339423
 C         -18.187963      -49.883427      -12.203884
 C         -17.685061      -51.283493      -12.488576
 C         -17.270704      -48.762409      -12.103289
 C         -16.767042      -51.340424      -13.692410
 C         -16.669039      -48.781712      -13.558000
 C         -15.927277      -50.118877      -13.853757
 H         -18.427917      -52.098694      -12.476081
 H         -17.052902      -51.450909      -11.650699
 H         -17.796860      -47.826977      -11.912190
 H         -16.486282      -48.964371      -11.381208
 H         -17.354055      -51.493938      -14.613009
 H         -16.167984      -52.287231      -13.628909
 H         -15.899453      -48.006859      -13.559578
 H         -17.323940      -48.497005      -14.369440
 H         -15.474503      -50.167908      -14.900755
 H         -15.088565      -50.219498      -13.097133
