20
 generated by VMD
 C         -59.946304     -152.993225      -51.150406
 N         -60.619247     -152.300049      -51.698307
 H         -57.070057     -153.400116      -49.607929
 H         -59.236027     -153.685303      -50.778423
 C         -56.225140     -152.757385      -49.732143
 C         -54.825588     -153.157028      -49.490055
 C         -56.505222     -151.456772      -50.302383
 C         -53.905914     -152.504395      -50.421818
 C         -55.600964     -150.816528      -51.399010
 C         -54.150497     -151.030701      -50.910431
 H         -54.675060     -154.340393      -49.566872
 H         -54.613186     -153.012009      -48.420216
 H         -57.511726     -151.318100      -50.720539
 H         -56.357994     -150.807678      -49.456150
 H         -53.786633     -153.163651      -51.287209
 H         -52.821224     -152.542358      -50.088268
 H         -55.792263     -149.684982      -51.503899
 H         -55.866089     -151.417709      -52.305916
 H         -53.479740     -150.668686      -51.726818
 H         -53.861080     -150.263367      -50.152603
