20
 generated by VMD
 C         -24.810493      -70.428734      -16.505005
 N         -25.002163      -70.871262      -15.456442
 H         -23.689713      -67.806892      -19.046715
 H         -24.486763      -69.932892      -17.494282
 C         -24.384405      -68.487602      -19.551590
 C         -23.785236      -69.325668      -20.728029
 C         -25.887135      -68.101265      -19.631176
 C         -24.803030      -70.300766      -21.579401
 C         -26.780756      -69.099297      -20.215082
 C         -26.175974      -69.692833      -21.560322
 H         -22.854979      -69.707649      -20.430513
 H         -23.366665      -68.521233      -21.404324
 H         -26.294411      -67.868652      -18.686157
 H         -25.830545      -67.295464      -20.263477
 H         -24.842718      -71.227058      -20.968323
 H         -24.324251      -70.426842      -22.497114
 H         -27.758118      -68.706703      -20.410543
 H         -27.013445      -69.957275      -19.650719
 H         -26.989759      -70.226547      -22.033863
 H         -26.087296      -68.854965      -22.261044
