20
 generated by VMD
 C         -67.637627     -179.546677      -58.635696
 N         -68.153984     -179.739227      -59.673336
 H         -67.404854     -177.253311      -60.095062
 H         -67.156044     -179.452972      -57.696903
 C         -66.458511     -176.586716      -60.108772
 C         -66.097595     -175.955185      -61.336357
 C         -65.309608     -177.157837      -59.278801
 C         -65.014450     -174.865448      -61.262039
 C         -64.161530     -176.061111      -59.133385
 C         -63.769321     -175.360458      -60.466560
 H         -66.936501     -175.629028      -61.956554
 H         -65.789009     -176.840225      -61.954369
 H         -65.775261     -177.333237      -58.324974
 H         -65.149506     -178.179245      -59.733112
 H         -65.464729     -173.937195      -60.698013
 H         -64.574608     -174.400040      -62.253628
 H         -63.321949     -176.617065      -58.634155
 H         -64.569130     -175.223495      -58.581226
 H         -62.904781     -174.687958      -60.565559
 H         -63.299015     -176.242157      -61.000149
