20
 generated by VMD
 C         -38.346695     -112.739441      -35.887798
 N         -37.790222     -112.106560      -36.706169
 H         -40.865055     -114.572441      -35.021481
 H         -39.067158     -113.068375      -35.088562
 C         -41.875278     -114.416161      -35.459213
 C         -41.957672     -114.570091      -36.956154
 C         -42.996956     -113.654976      -34.668575
 C         -43.376484     -114.791168      -37.437290
 C         -44.348907     -113.908386      -35.259052
 C         -44.457699     -113.826385      -36.794891
 H         -41.252419     -115.400558      -37.228737
 H         -41.406498     -113.746132      -37.440430
 H         -43.012894     -114.159744      -33.695797
 H         -42.726006     -112.620705      -34.431046
 H         -43.771069     -115.784660      -37.391132
 H         -43.429585     -114.567955      -38.501865
 H         -45.031345     -113.131340      -34.736179
 H         -44.653927     -115.004501      -35.108089
 H         -45.393227     -114.234573      -37.138218
 H         -44.329628     -112.806480      -37.345375
