20
 generated by VMD
 C         -51.058868     -130.783813      -46.398174
 N         -50.280350     -130.647461      -47.227081
 H         -48.348312     -132.136734      -44.472889
 H         -51.364746     -131.022903      -45.427349
 C         -48.285782     -132.364532      -43.389450
 C         -48.804848     -133.714127      -43.096676
 C         -48.286079     -131.286957      -42.218891
 C         -48.396839     -134.253922      -41.671101
 C         -47.804699     -131.914825      -40.897457
 C         -48.626896     -133.236221      -40.625744
 H         -48.375034     -134.472717      -43.828793
 H         -49.874893     -133.597366      -43.179382
 H         -47.666649     -130.568909      -42.543770
 H         -49.332088     -130.971497      -42.174099
 H         -47.367668     -134.679367      -41.648682
 H         -49.072136     -135.081650      -41.344742
 H         -47.926201     -131.108475      -40.114021
 H         -46.771343     -132.047379      -40.769924
 H         -48.150143     -133.632156      -39.764801
 H         -49.691921     -132.840103      -40.535896
