20
 generated by VMD
 C         -60.846989     -156.246307      -54.788895
 N         -60.215134     -155.543121      -55.407757
 H         -59.794792     -156.830994      -51.552502
 H         -61.533783     -156.832703      -54.203590
 C         -58.741096     -156.850922      -51.869541
 C         -57.985306     -155.582428      -51.718716
 C         -57.920738     -158.073807      -52.180775
 C         -56.836216     -155.509109      -50.815502
 C         -56.774284     -158.095856      -51.013874
 C         -55.895695     -156.789932      -51.021820
 H         -58.669907     -154.859451      -51.508713
 H         -57.529358     -155.333145      -52.670811
 H         -58.506081     -158.991959      -52.135952
 H         -57.340370     -158.067444      -53.179314
 H         -57.284256     -155.612930      -49.773544
 H         -56.076080     -154.780212      -51.007107
 H         -56.038467     -158.802551      -51.174282
 H         -57.391827     -158.257690      -50.096870
 H         -55.043175     -156.838989      -50.283085
 H         -55.443600     -156.659256      -52.012550
