20
 generated by VMD
 C         -22.843426      -55.451389      -16.585546
 N         -23.394386      -54.699718      -15.923100
 H         -19.154799      -55.441299      -15.416669
 H         -22.355022      -56.065582      -17.372915
 C         -19.228230      -56.356312      -14.781944
 C         -20.360270      -56.267269      -13.792552
 C         -18.406431      -57.453926      -15.112357
 C         -20.741152      -57.624538      -13.300327
 C         -19.141951      -58.761986      -14.771448
 C         -19.620768      -58.693237      -13.331649
 H         -21.180679      -55.666973      -14.287708
 H         -19.968397      -55.727974      -12.908054
 H         -18.106651      -57.605907      -16.203094
 H         -17.549070      -57.458885      -14.475910
 H         -21.530252      -57.994133      -13.948073
 H         -21.169350      -57.528736      -12.318067
 H         -18.350433      -59.505249      -14.867770
 H         -19.918816      -59.056484      -15.446648
 H         -20.087931      -59.648247      -12.978424
 H         -18.750917      -58.459827      -12.716541
