20
 generated by VMD
 C         -50.544956     -130.944092      -45.724762
 N         -50.592796     -129.857269      -46.255482
 H         -47.501919     -132.252380      -44.401131
 H         -50.194553     -131.665176      -45.008858
 C         -48.071861     -132.299698      -43.461319
 C         -48.535709     -133.585083      -42.907867
 C         -48.348316     -131.066818      -42.788010
 C         -48.121765     -133.736679      -41.413025
 C         -47.892834     -131.218719      -41.277138
 C         -48.403439     -132.508484      -40.513191
 H         -47.981480     -134.399307      -43.511322
 H         -49.552299     -133.576904      -43.114681
 H         -47.706532     -130.280304      -43.088242
 H         -49.390835     -130.860352      -42.773769
 H         -47.049355     -133.818253      -41.498089
 H         -48.485786     -134.699020      -41.087349
 H         -48.146137     -130.230515      -40.717754
 H         -46.750782     -131.295822      -41.228382
 H         -47.907917     -132.806564      -39.633877
 H         -49.485485     -132.473007      -40.309742
