20
 generated by VMD
 C         -12.671872      -28.085453       -4.718209
 N         -13.081650      -27.724630       -5.685564
 H         -11.179332      -30.670988       -2.991347
 H         -11.011591      -29.211620       -3.776905
 C         -10.375485      -30.062551       -3.421917
 C          -9.690372      -30.758482       -4.646185
 C          -9.363428      -29.498177       -2.419679
 C          -8.678339      -29.763393       -5.329139
 C          -8.506190      -28.397791       -3.143999
 C          -7.718745      -29.107109       -4.372295
 H         -10.365907      -31.108145       -5.390629
 H          -9.196537      -31.653851       -4.260079
 H          -9.984539      -29.057281       -1.571801
 H          -8.779848      -30.347557       -2.034791
 H          -9.258515      -29.057110       -5.880376
 H          -8.146819      -30.265636       -6.128054
 H          -7.797043      -27.842136       -2.543919
 H          -9.107994      -27.664843       -3.676888
 H          -7.013428      -28.340534       -4.826429
 H          -6.992598      -29.828970       -3.972443
