20
 generated by VMD
 C         -77.316620     -202.931671      -69.374626
 N         -77.766533     -203.782227      -68.691345
 H         -75.719559     -202.035721      -67.673729
 H         -76.955368     -202.200897      -70.053581
 C         -74.965233     -201.537186      -68.213219
 C         -75.134972     -200.074722      -68.495995
 C         -73.936325     -202.349564      -68.901581
 C         -74.685150     -199.625992      -69.917381
 C         -73.207253     -201.553589      -69.976326
 C         -74.120598     -200.778748      -70.783936
 H         -74.836342     -199.421326      -67.637367
 H         -76.169960     -199.920090      -68.496834
 H         -73.292702     -202.891922      -68.191650
 H         -74.635094     -203.021103      -69.482140
 H         -73.878708     -198.831757      -69.738312
 H         -75.580528     -199.068192      -70.362526
 H         -72.640259     -202.223282      -70.615448
 H         -72.391670     -200.955933      -69.540215
 H         -73.492500     -200.456039      -71.659103
 H         -74.788643     -201.424957      -71.180115
