20
 generated by VMD
 C         -30.180954      -80.195251      -26.355013
 N         -29.365259      -79.390327      -26.458862
 H         -28.385546      -82.806702      -25.294641
 H         -31.077826      -80.792465      -26.459997
 C         -29.179398      -82.843552      -24.622068
 C         -28.968666      -82.023048      -23.371372
 C         -30.056608      -84.030052      -24.732458
 C         -30.286219      -81.996704      -22.629824
 C         -31.252340      -84.124901      -23.693468
 C         -30.823763      -83.434883      -22.384031
 H         -28.756886      -81.033569      -23.757315
 H         -28.153242      -82.510513      -22.907072
 H         -30.576344      -84.069252      -25.673344
 H         -29.371937      -84.938080      -24.674599
 H         -31.139738      -81.376022      -22.981749
 H         -30.059793      -81.392441      -21.688986
 H         -31.644274      -85.107384      -23.464621
 H         -32.108017      -83.540947      -24.210960
 H         -31.722446      -83.208916      -21.679832
 H         -30.013203      -83.901817      -21.816998
