20
 generated by VMD
 C         -58.394955     -160.165787      -56.978291
 N         -58.641579     -159.849457      -58.097260
 H         -58.781265     -162.814697      -54.838299
 H         -58.257999     -160.425446      -55.919952
 C         -59.628700     -163.153702      -54.215393
 C         -59.436394     -163.135925      -52.708897
 C         -61.077835     -163.258789      -54.776436
 C         -60.333813     -162.047516      -52.025692
 C         -61.885731     -162.212875      -54.018276
 C         -61.811905     -162.221344      -52.463097
 H         -58.360302     -163.062607      -52.372524
 H         -59.673347     -164.143936      -52.308781
 H         -61.089596     -162.979431      -55.818588
 H         -61.587669     -164.268921      -54.601128
 H         -59.978416     -161.107574      -52.367271
 H         -60.090752     -162.114731      -50.975842
 H         -62.867039     -162.405945      -54.369522
 H         -61.743565     -161.203522      -54.157097
 H         -62.544956     -161.556030      -51.969055
 H         -62.191341     -163.203079      -52.159531
