20
 generated by VMD
 C         -41.598763     -119.510429      -34.389297
 N         -41.391289     -120.162430      -35.365585
 H         -43.456093     -118.891685      -36.779167
 H         -41.583488     -118.921227      -33.482815
 C         -43.744717     -118.211891      -37.628376
 C         -42.992630     -118.304535      -38.943150
 C         -45.134403     -117.584595      -37.723637
 C         -43.832550     -118.594269      -40.158485
 C         -45.911102     -118.133743      -38.977989
 C         -45.110569     -117.823517      -40.229691
 H         -42.208946     -119.058289      -38.730396
 H         -42.532726     -117.221779      -38.862328
 H         -45.817642     -117.804039      -36.913136
 H         -44.972164     -116.540428      -37.708790
 H         -43.951332     -119.688446      -40.120857
 H         -43.130749     -118.446106      -41.055508
 H         -46.846024     -117.600838      -39.098961
 H         -46.194073     -119.137337      -38.779667
 H         -45.688412     -118.287964      -41.054832
 H         -45.100941     -116.790237      -40.493202
