20
 generated by VMD
 C         -39.754623     -105.558205      -37.050541
 N         -40.394707     -106.463158      -37.430061
 H         -38.762341     -107.843330      -34.938698
 H         -39.107388     -104.926018      -36.499516
 C         -39.258240     -108.484917      -34.251862
 C         -38.358353     -109.145569      -33.212959
 C         -40.700748     -109.089706      -34.500084
 C         -39.136478     -109.359406      -31.855043
 C         -41.331436     -109.395393      -33.075142
 C         -40.486855     -110.033188      -32.098877
 H         -37.416168     -108.508720      -33.019848
 H         -38.050385     -110.178284      -33.672066
 H         -41.410793     -108.462463      -34.931225
 H         -40.593056     -110.058273      -35.021683
 H         -39.438076     -108.402115      -31.456427
 H         -38.492500     -109.819016      -31.223270
 H         -42.184162     -110.079529      -33.253616
 H         -41.668911     -108.389801      -32.633049
 H         -40.991604     -110.017403      -31.130539
 H         -40.338058     -111.164108      -32.378231
