20
 generated by VMD
 C         -79.378761     -205.494507      -70.883118
 N         -80.453140     -205.829727      -71.268021
 H         -76.598076     -203.381546      -71.354004
 H         -78.326981     -205.114609      -70.675575
 C         -76.192078     -203.247971      -70.318001
 C         -75.333275     -202.070740      -70.002686
 C         -75.755325     -204.488724      -69.693130
 C         -73.886681     -202.489990      -70.607155
 C         -74.290764     -204.399353      -69.115196
 C         -73.261810     -203.579071      -69.883575
 H         -75.221497     -201.896210      -68.962143
 H         -75.691887     -201.137772      -70.522781
 H         -76.478088     -204.479874      -68.865295
 H         -75.848244     -205.366104      -70.320007
 H         -73.267502     -201.589371      -70.518143
 H         -73.969124     -202.610840      -71.720619
 H         -73.898651     -205.453583      -68.951477
 H         -74.407822     -204.022781      -68.085365
 H         -72.630226     -203.061066      -68.977547
 H         -72.614548     -204.307281      -70.410522
