20
 generated by VMD
 C         -68.936371     -186.783844      -67.821724
 N         -68.009262     -187.429550      -67.536224
 H         -68.206062     -187.572968      -64.244308
 H         -69.805893     -186.167801      -68.147697
 C         -69.088364     -187.404495      -63.669453
 C         -68.971077     -187.748474      -62.154408
 C         -70.512306     -187.024719      -64.204369
 C         -70.186798     -188.500504      -61.571350
 C         -71.495110     -188.077866      -63.598701
 C         -71.424179     -187.931732      -62.065823
 H         -68.944458     -186.821609      -61.523926
 H         -68.012421     -188.302414      -61.990879
 H         -70.807228     -186.041412      -63.888950
 H         -70.496078     -187.238556      -65.271790
 H         -70.149551     -188.538818      -60.515041
 H         -69.987167     -189.547607      -61.856426
 H         -71.391953     -189.123886      -63.907001
 H         -72.524742     -187.882309      -63.889442
 H         -71.539696     -186.843307      -61.870148
 H         -72.328201     -188.331711      -61.566082
