20
 generated by VMD
 C         -80.062714     -205.445236      -71.427353
 N         -80.114967     -206.631058      -71.531586
 H         -77.382195     -202.969696      -70.156601
 H         -79.887238     -204.377731      -71.544098
 C         -76.333237     -203.343887      -70.253670
 C         -75.188042     -202.460526      -70.529556
 C         -76.038216     -204.788513      -70.101730
 C         -73.713326     -203.142853      -70.472725
 C         -74.796387     -205.028091      -69.229645
 C         -73.565376     -204.306091      -69.544525
 H         -75.215317     -201.636749      -69.816879
 H         -75.352280     -201.960815      -71.539482
 H         -76.996277     -205.304077      -69.839325
 H         -75.744202     -205.264725      -71.047089
 H         -73.187225     -202.296951      -70.048157
 H         -73.361977     -203.356705      -71.464874
 H         -74.629318     -206.132584      -69.124107
 H         -74.998238     -204.747879      -68.220932
 H         -73.321510     -203.851257      -68.609894
 H         -72.730568     -204.832153      -69.889000
