20
 generated by VMD
 C         -70.096062     -181.266357      -63.203339
 N         -71.190384     -181.555145      -63.291546
 H         -67.738503     -181.692337      -60.995773
 H         -69.075256     -180.985107      -63.110504
 C         -66.963707     -180.892487      -60.993092
 C         -65.691750     -181.314163      -60.333324
 C         -67.375290     -179.481049      -60.683090
 C         -64.555550     -180.260559      -60.780190
 C         -66.141106     -178.523132      -60.790207
 C         -64.831268     -178.927231      -60.256672
 H         -65.303093     -182.306168      -60.635838
 H         -65.884148     -181.270935      -59.178875
 H         -68.216385     -179.217041      -61.237717
 H         -67.717468     -179.587662      -59.702221
 H         -64.445663     -180.169235      -61.805080
 H         -63.659985     -180.692078      -60.456631
 H         -66.314026     -177.639008      -60.178871
 H         -66.073486     -178.166168      -61.845650
 H         -64.045143     -178.329651      -60.635159
 H         -64.900223     -178.973740      -59.150177
