20
 generated by VMD
 C         -33.496529      -96.527550      -25.306370
 N         -32.685719      -96.863937      -24.586575
 H         -34.713020      -93.681831      -27.457584
 H         -34.230431      -96.378128      -26.190325
 C         -34.754047      -93.405342      -28.503025
 C         -36.100311      -93.703354      -29.170525
 C         -33.498428      -93.206444      -29.294744
 C         -36.205696      -92.880341      -30.424463
 C         -33.816505      -92.392601      -30.555927
 C         -34.946739      -92.970329      -31.286993
 H         -36.956074      -93.452560      -28.489944
 H         -36.205688      -94.798271      -29.271957
 H         -32.739002      -92.736412      -28.642874
 H         -33.010860      -94.140427      -29.604052
 H         -36.461906      -91.885437      -30.061790
 H         -37.129086      -93.254456      -30.970171
 H         -32.894058      -92.392426      -31.147255
 H         -34.200413      -91.350288      -30.302534
 H         -34.985542      -92.443512      -32.252449
 H         -34.888409      -94.045387      -31.539183
