20
 generated by VMD
 C         -13.810275      -43.685638       -6.731266
 N         -13.386132      -43.801189       -5.717851
 H         -15.018856      -45.033543       -8.934592
 H         -14.282295      -43.889851      -10.090303
 C         -15.175181      -44.522606       -9.890587
 C         -16.337954      -43.555401       -9.651978
 C         -15.539129      -45.482399      -10.982986
 C         -16.937252      -42.835312      -10.943081
 C         -16.006157      -44.763824      -12.258524
 C         -17.235241      -43.865704      -12.030766
 H         -15.938117      -42.828411       -8.942330
 H         -17.178623      -44.088058       -9.228875
 H         -14.692339      -46.192188      -11.196474
 H         -16.386816      -46.053391      -10.591772
 H         -16.210903      -42.100494      -11.315208
 H         -17.833298      -42.322998      -10.616226
 H         -16.359571      -45.470863      -12.996848
 H         -15.120849      -44.274521      -12.675782
 H         -17.581810      -43.410931      -13.024076
 H         -18.075979      -44.566193      -11.737237
