20
 generated by VMD
 C         -16.420773      -47.661999       -7.250366
 N         -16.143538      -46.591583       -7.186783
 H         -16.948973      -48.401421      -10.201344
 H         -15.509699      -48.208836      -11.221447
 C         -16.503277      -47.759754      -11.015244
 C         -16.316418      -46.335354      -10.545615
 C         -17.428795      -47.773960      -12.177212
 C         -15.972130      -45.265697      -11.669664
 C         -16.871262      -46.765041      -13.221054
 C         -16.862062      -45.311352      -12.878874
 H         -15.490542      -46.324036       -9.827700
 H         -17.240828      -46.009884      -10.129819
 H         -17.501337      -48.759972      -12.626445
 H         -18.401411      -47.446098      -11.842414
 H         -14.956611      -45.419640      -12.018270
 H         -15.985620      -44.274799      -11.214416
 H         -17.572273      -46.710636      -14.080822
 H         -15.938948      -47.193256      -13.666663
 H         -16.497095      -44.666309      -13.729725
 H         -17.841789      -44.870922      -12.659519
