20
 generated by VMD
 C         -79.584618     -206.587372      -75.099663
 N         -79.939316     -206.218109      -74.044930
 H         -78.542458     -206.535950      -71.270378
 H         -79.082146     -206.970871      -76.049797
 C         -77.554878     -206.749481      -70.727234
 C         -76.499069     -205.988449      -71.345497
 C         -77.285530     -208.097824      -70.173691
 C         -75.246452     -205.887421      -70.416534
 C         -76.191650     -207.967941      -69.110413
 C         -74.934158     -207.267593      -69.701866
 H         -77.020912     -204.951370      -71.462532
 H         -76.027695     -206.192047      -72.317360
 H         -78.143967     -208.524918      -69.695351
 H         -76.985031     -208.854385      -70.933540
 H         -75.523178     -205.275894      -69.561516
 H         -74.383041     -205.468216      -70.978050
 H         -75.850243     -208.980103      -68.816025
 H         -76.596840     -207.399979      -68.282631
 H         -74.224380     -207.145462      -68.834976
 H         -74.552208     -207.926407      -70.549194
