20
 generated by VMD
 C         -12.446319      -43.093971       -7.049062
 N         -12.635139      -42.113632       -6.566917
 H         -14.770511      -43.887249       -8.278864
 H         -14.412871      -42.470814       -9.223325
 C         -15.116430      -43.377934       -9.174809
 C         -16.615843      -43.004967       -9.008245
 C         -14.939138      -44.289043      -10.430814
 C         -17.337402      -42.521645      -10.287720
 C         -15.525171      -43.699932      -11.705126
 C         -17.057217      -43.500031      -11.429475
 H         -16.737978      -42.310505       -8.197610
 H         -17.086264      -43.948246       -8.807031
 H         -13.846230      -44.415874      -10.622399
 H         -15.400824      -45.238861      -10.154071
 H         -16.942539      -41.533806      -10.531370
 H         -18.413866      -42.466999      -10.133561
 H         -15.382630      -44.232780      -12.595494
 H         -14.966164      -42.725666      -11.909113
 H         -17.412554      -43.052242      -12.378167
 H         -17.643133      -44.474018      -11.338242
