20
 generated by VMD
 C         -36.322159      -97.797119      -26.772118
 N         -36.056557      -98.117287      -25.673672
 H         -36.048477      -95.236153      -28.209934
 H         -36.381012      -97.553276      -27.805311
 C         -35.454426      -95.237328      -29.099497
 C         -35.621899      -96.198868      -30.283329
 C         -34.160439      -94.406952      -29.024282
 C         -35.472477      -95.399010      -31.539541
 C         -33.856270      -93.782684      -30.448353
 C         -34.016502      -94.782982      -31.507935
 H         -36.694931      -96.505333      -30.291298
 H         -34.965851      -97.060257      -30.155321
 H         -34.092041      -93.717438      -28.158035
 H         -33.252697      -95.049408      -28.899710
 H         -36.225918      -94.560982      -31.640196
 H         -35.479210      -95.985512      -32.434490
 H         -32.934696      -93.258492      -30.516808
 H         -34.541298      -92.918358      -30.536470
 H         -33.722355      -94.183487      -32.498688
 H         -33.287846      -95.513885      -31.273819
