20
 generated by VMD
 C         -20.483330      -57.223473      -16.917149
 N         -20.763552      -56.418289      -16.085484
 H         -22.353573      -59.846970      -17.799734
 H         -20.516914      -57.965004      -17.791338
 C         -22.078608      -60.208313      -16.839640
 C         -22.665009      -59.456841      -15.632552
 C         -21.722771      -61.615025      -16.781008
 C         -22.083538      -59.975384      -14.269245
 C         -20.878069      -61.962879      -15.553727
 C         -21.586063      -61.485069      -14.241122
 H         -23.773560      -59.687988      -15.568417
 H         -22.648788      -58.358414      -15.759587
 H         -22.598917      -62.295815      -16.849701
 H         -21.261314      -61.819756      -17.731504
 H         -22.833246      -59.855747      -13.483526
 H         -21.131464      -59.458591      -14.091904
 H         -19.926847      -61.545116      -15.776853
 H         -20.655952      -63.025497      -15.546195
 H         -22.400331      -62.191811      -13.966836
 H         -20.867228      -61.551914      -13.438551
