20
 generated by VMD
 C         -79.385628     -205.431000      -70.938942
 N         -80.327431     -206.034225      -71.346420
 H         -77.387367     -202.974960      -69.959183
 H         -78.645943     -204.924637      -70.397034
 C         -76.342453     -203.301376      -70.220390
 C         -75.337662     -202.186935      -70.359612
 C         -75.829498     -204.692871      -70.044258
 C         -73.773415     -202.603256      -70.475250
 C         -74.581299     -204.530487      -69.039055
 C         -73.320236     -203.880661      -69.764915
 H         -75.611320     -201.593948      -69.462173
 H         -75.612312     -201.561813      -71.228317
 H         -76.576729     -205.355774      -69.571373
 H         -75.444923     -204.990860      -71.056671
 H         -73.202927     -201.832230      -69.991631
 H         -73.402214     -202.699615      -71.461128
 H         -74.309723     -205.514603      -68.857231
 H         -74.795372     -204.020630      -68.038338
 H         -72.567177     -203.730881      -69.115250
 H         -72.965424     -204.567093      -70.524559
