20
 generated by VMD
 C         -68.700172     -189.136749      -67.201988
 N         -67.601349     -189.313980      -66.853775
 H         -68.825912     -187.776093      -63.955395
 H         -69.718384     -188.838074      -67.580994
 C         -69.584106     -188.194611      -63.344318
 C         -69.925621     -189.636917      -63.472137
 C         -70.555153     -187.224197      -62.775379
 C         -71.217667     -189.712402      -64.310249
 C         -71.726173     -187.220917      -63.693871
 C         -72.306335     -188.667404      -63.863068
 H         -69.929359     -190.012527      -62.435734
 H         -69.155830     -190.306412      -63.975666
 H         -70.907829     -187.571487      -61.792763
 H         -70.077728     -186.148956      -62.841610
 H         -71.589493     -190.791779      -64.264366
 H         -70.985001     -189.633575      -65.350731
 H         -71.481140     -186.755859      -64.667137
 H         -72.599388     -186.727676      -63.177864
 H         -72.828598     -188.893250      -62.926903
 H         -73.275826     -188.649261      -64.585297
