20
 generated by VMD
 C         -47.472054     -137.210770      -46.152313
 N         -47.153599     -136.675278      -47.079338
 H         -50.385426     -136.309891      -45.036522
 H         -47.774761     -137.598770      -45.215607
 C         -51.112747     -137.055984      -44.816833
 C         -51.393188     -137.938858      -46.040508
 C         -52.223824     -136.891205      -43.815853
 C         -52.111942     -139.222626      -45.652397
 C         -52.991684     -138.213821      -43.524151
 C         -53.375900     -139.041702      -44.787766
 H         -50.424854     -138.004700      -46.623642
 H         -51.968067     -137.340286      -46.704948
 H         -51.771523     -136.506165      -42.903008
 H         -52.851883     -136.178009      -44.272366
 H         -51.315758     -139.671661      -45.011971
 H         -52.432312     -139.848053      -46.542679
 H         -54.080097     -137.863510      -43.176968
 H         -52.433422     -138.935333      -42.922485
 H         -53.861717     -140.101913      -44.612629
 H         -54.091461     -138.468536      -45.485004
