20
 generated by VMD
 C         -40.530922     -106.189247      -37.085243
 N         -39.778389     -106.781006      -37.748878
 H         -38.739254     -107.775795      -34.197670
 H         -41.174892     -105.510971      -36.503738
 C         -39.158424     -108.727692      -34.001324
 C         -38.498222     -109.755989      -33.124054
 C         -40.490284     -108.846634      -34.511787
 C         -39.464458     -110.032974      -32.010883
 C         -41.450932     -109.182014      -33.387653
 C         -40.863186     -110.376930      -32.441597
 H         -37.436661     -109.450081      -32.830822
 H         -38.306538     -110.624146      -33.792217
 H         -40.700123     -107.847977      -34.919018
 H         -40.529049     -109.589653      -35.266300
 H         -39.502541     -109.205917      -31.329618
 H         -39.023540     -110.838562      -31.429245
 H         -42.408302     -109.598671      -33.789135
 H         -41.644604     -108.285851      -32.747921
 H         -41.576004     -110.574516      -31.563829
 H         -40.862171     -111.297928      -33.096825
