20
 generated by VMD
 C         -11.181751      -38.487358       -7.508126
 N         -11.740459      -37.679626       -6.933368
 H         -12.610678      -41.756100       -8.987583
 H         -13.393878      -40.534954       -7.980075
 C         -13.622919      -41.340614       -8.690276
 C         -14.523799      -42.460686       -8.174859
 C         -14.216772      -40.614437       -9.939800
 C         -15.894007      -41.786373       -7.755201
 C         -15.695952      -40.184952       -9.688480
 C         -16.604954      -41.247875       -9.050961
 H         -14.120083      -42.833305       -7.185280
 H         -14.751565      -43.258362       -8.911147
 H         -13.614431      -39.682102      -10.238082
 H         -14.276582      -41.343349      -10.752443
 H         -15.696617      -40.963772       -7.064347
 H         -16.485533      -42.611633       -7.267881
 H         -16.020695      -39.816135      -10.609255
 H         -15.761192      -39.238884       -9.045839
 H         -17.602497      -40.856148       -8.825692
 H         -16.812254      -42.091324       -9.687199
