20
 generated by VMD
 C         -25.030819      -70.950722      -16.840738
 N         -25.241930      -70.880653      -15.726250
 H         -23.883659      -68.104973      -19.020267
 H         -25.046118      -70.913109      -17.994614
 C         -24.477983      -68.869240      -19.469494
 C         -23.853008      -69.583412      -20.588755
 C         -25.848501      -68.365952      -19.761616
 C         -24.873383      -70.524757      -21.313030
 C         -26.782093      -69.232811      -20.504753
 C         -26.149279      -69.724609      -21.706280
 H         -23.045443      -70.125229      -20.094069
 H         -23.432768      -68.872528      -21.445467
 H         -26.455990      -68.115395      -18.858856
 H         -25.731857      -67.281174      -20.251541
 H         -25.302477      -71.309883      -20.591137
 H         -24.439611      -70.986626      -22.190342
 H         -27.587059      -68.501160      -20.836166
 H         -27.346111      -69.969711      -19.829647
 H         -26.830090      -70.447426      -22.230934
 H         -25.897373      -69.049744      -22.527798
