20
 generated by VMD
 C         -54.604748     -148.282852      -45.251854
 N         -54.499859     -148.436890      -44.125992
 H         -54.616993     -148.115982      -49.052616
 H         -54.731121     -148.027252      -46.272152
 C         -54.470142     -147.084305      -49.260029
 C         -53.168468     -146.729340      -50.029972
 C         -55.085876     -145.921707      -48.464058
 C         -53.303249     -145.451859      -50.904068
 C         -55.125187     -144.645294      -49.320843
 C         -53.791225     -144.345459      -50.070339
 H         -53.103882     -147.649475      -50.689941
 H         -52.302406     -146.615555      -49.401627
 H         -56.068340     -146.254028      -47.917015
 H         -54.330894     -145.742203      -47.659603
 H         -53.890053     -145.739899      -51.774212
 H         -52.220039     -145.293625      -51.266861
 H         -55.282570     -143.825241      -48.691257
 H         -56.079636     -144.656219      -50.039185
 H         -53.767319     -143.435837      -50.672173
 H         -53.198071     -144.263931      -49.161869
