20
 generated by VMD
 C         -72.823387     -198.702789      -65.653175
 N         -73.770401     -199.116989      -66.172791
 H         -70.931458     -196.439804      -67.359306
 H         -71.842102     -198.320511      -65.420197
 C         -71.952522     -196.286835      -67.733788
 C         -73.011986     -195.630722      -66.926888
 C         -72.417999     -196.960327      -69.030365
 C         -74.256668     -195.306427      -67.689987
 C         -73.900589     -197.334625      -69.125000
 C         -74.889549     -196.616394      -68.226418
 H         -72.649620     -194.690750      -66.598221
 H         -73.254990     -196.174683      -65.958511
 H         -72.196449     -196.354309      -69.876694
 H         -71.945648     -197.938995      -68.963509
 H         -74.126808     -194.550049      -68.496361
 H         -75.012680     -194.869370      -67.060135
 H         -73.880730     -198.394897      -68.913940
 H         -74.293709     -197.363159      -70.184494
 H         -75.825867     -196.402100      -68.834518
 H         -75.425865     -197.189316      -67.477318
