20
 generated by VMD
 C         -44.743828     -122.347542      -35.809376
 N         -44.758297     -122.950195      -34.789265
 H         -45.128643     -122.890724      -39.201714
 H         -44.916580     -121.776787      -36.661343
 C         -44.966003     -121.835052      -39.443630
 C         -43.547894     -121.379021      -39.637909
 C         -46.112350     -120.811737      -39.686047
 C         -43.282513     -120.204132      -40.616970
 C         -45.679157     -119.574890      -40.498386
 C         -44.291229     -119.079468      -40.358932
 H         -42.859890     -122.183678      -40.095535
 H         -43.155327     -121.272385      -38.576492
 H         -46.989811     -121.323463      -40.018272
 H         -46.290878     -120.425507      -38.686893
 H         -43.388737     -120.549446      -41.632656
 H         -42.216625     -119.810059      -40.461327
 H         -46.502884     -118.921539      -40.289295
 H         -45.755421     -120.100571      -41.526585
 H         -44.185871     -118.368393      -41.123497
 H         -44.145580     -118.613426      -39.446964
