20
 generated by VMD
 C         -78.235161     -210.069153      -76.375671
 N         -77.412132     -210.903534      -76.213226
 H         -80.208397     -212.300201      -74.876686
 H         -79.037994     -209.398361      -76.532265
 C         -80.059830     -212.789505      -73.971703
 C         -78.617889     -212.797623      -73.495377
 C         -81.010109     -213.716293      -73.260857
 C         -78.511909     -212.958328      -71.912216
 C         -80.988838     -213.660324      -71.668152
 C         -79.486847     -213.843048      -71.229233
 H         -78.003784     -211.932434      -73.902718
 H         -78.263161     -213.763550      -73.830681
 H         -82.032547     -213.512314      -73.649666
 H         -80.972000     -214.820023      -73.529877
 H         -78.662163     -211.905563      -71.624687
 H         -77.522606     -213.351013      -71.665741
 H         -81.617432     -214.412918      -71.210800
 H         -81.464470     -212.672638      -71.308495
 H         -79.414230     -213.642654      -70.114510
 H         -79.097038     -214.916000      -71.357826
