20
 generated by VMD
 C         -49.206074     -126.988365      -39.837978
 N         -50.167023     -127.227585      -39.260803
 H         -46.799107     -127.189079      -42.166851
 H         -48.182991     -126.842445      -40.122238
 C         -46.197132     -126.333725      -41.931595
 C         -45.237301     -126.918610      -40.772255
 C         -46.702778     -124.921249      -41.865108
 C         -44.294792     -125.856125      -40.410007
 C         -45.547661     -124.071037      -41.470577
 C         -44.885483     -124.542580      -40.186569
 H         -44.707039     -127.815002      -41.082241
 H         -45.976582     -127.229164      -39.883026
 H         -47.068081     -124.544708      -42.861351
 H         -47.471035     -124.792320      -41.208549
 H         -43.629448     -125.745827      -41.240509
 H         -43.633690     -126.218727      -39.649044
 H         -45.914345     -123.048859      -41.346569
 H         -44.740189     -124.214836      -42.221775
 H         -44.067833     -123.754898      -40.080643
 H         -45.564663     -124.458534      -39.306465
