20
 generated by VMD
 C         -28.431093      -82.440819      -26.440689
 N         -27.620346      -82.878670      -27.179314
 H         -30.728827      -84.116219      -26.539509
 H         -29.252687      -82.074203      -25.919899
 C         -31.447100      -84.637589      -25.790297
 C         -30.908184      -84.539886      -24.380903
 C         -32.058575      -86.038147      -26.140528
 C         -31.890156      -85.059647      -23.333618
 C         -33.001877      -86.567841      -25.047159
 C         -32.432877      -86.333672      -23.692392
 H         -30.672451      -83.463753      -24.141108
 H         -29.949833      -85.064507      -24.127966
 H         -32.621647      -85.903122      -27.112753
 H         -31.272776      -86.765450      -26.245199
 H         -32.704403      -84.303802      -23.240887
 H         -31.392847      -84.970840      -22.273685
 H         -33.302113      -87.599159      -25.230228
 H         -33.868553      -85.974617      -25.016573
 H         -33.323639      -86.566376      -22.975729
 H         -31.712782      -87.116486      -23.640299
