20
 generated by VMD
 C         -22.200577      -52.922695      -12.476295
 N         -23.196703      -52.457962      -12.707067
 H         -20.311049      -54.150337      -14.047665
 H         -21.051977      -53.456036      -12.223559
 C         -19.339699      -53.710033      -13.657275
 C         -18.786066      -52.337280      -13.805757
 C         -18.332108      -54.820759      -13.493449
 C         -17.313169      -52.347916      -14.295578
 C         -17.231045      -54.335201      -12.609204
 C         -16.479511      -53.202526      -13.349456
 H         -18.817377      -51.895256      -12.813668
 H         -19.354126      -51.777668      -14.610445
 H         -18.746838      -55.748478      -13.003884
 H         -18.104443      -55.117859      -14.499957
 H         -16.962086      -51.308140      -14.422206
 H         -17.273935      -52.794025      -15.330416
 H         -16.525934      -55.237511      -12.411859
 H         -17.568668      -54.028316      -11.636828
 H         -16.056150      -52.532139      -12.621224
 H         -15.695794      -53.621426      -13.913170
