20
 generated by VMD
 C         -31.114845      -77.605522      -25.705420
 N         -31.662712      -77.962585      -26.708776
 H         -29.292137      -78.425873      -22.819798
 H         -30.918396      -77.101974      -24.671526
 C         -28.980747      -79.374306      -23.195721
 C         -27.499239      -79.649391      -23.405802
 C         -29.699858      -80.611046      -22.827335
 C         -26.912773      -80.204689      -22.063498
 C         -29.210913      -81.201004      -21.477476
 C         -27.717325      -81.308556      -21.384979
 H         -26.937908      -78.723488      -23.428921
 H         -27.474129      -80.344147      -24.218479
 H         -30.799963      -80.428230      -22.696024
 H         -29.554441      -81.304024      -23.734112
 H         -26.590309      -79.401863      -21.484627
 H         -25.929558      -80.677948      -22.333292
 H         -29.773542      -82.192833      -21.363062
 H         -29.766722      -80.603539      -20.775234
 H         -27.538275      -81.377327      -20.313622
 H         -27.301882      -82.252914      -21.732832
