20
 generated by VMD
 C         -61.951389     -172.380768      -54.928898
 N         -61.025219     -172.933533      -55.254887
 H         -61.945633     -170.760223      -57.134590
 H         -62.799725     -171.709991      -54.793148
 C         -62.621151     -170.272766      -57.886063
 C         -62.463009     -168.749908      -57.959919
 C         -64.024773     -170.770706      -57.984222
 C         -63.532536     -167.909744      -58.566441
 C         -65.096611     -169.834732      -58.612885
 C         -64.997543     -168.388077      -58.197845
 H         -61.403320     -168.624237      -58.448345
 H         -62.393238     -168.434097      -56.968662
 H         -63.853493     -171.737366      -58.580303
 H         -64.324852     -171.031082      -56.939236
 H         -63.448654     -167.917007      -59.658352
 H         -63.542290     -166.783127      -58.333591
 H         -66.060196     -170.256454      -58.432457
 H         -65.002220     -169.888611      -59.625137
 H         -65.523300     -167.644531      -58.904549
 H         -65.278351     -168.136841      -57.183399
