20
 generated by VMD
 C          -1.562501       -8.787175        0.239776
 N          -2.466805       -9.187127       -0.234105
 H          -2.523686      -10.388316        2.546500
 H          -2.099565      -11.660331        3.810254
 C          -2.786089      -11.300668        3.083726
 C          -2.880835      -12.368052        1.921241
 C          -4.115946      -11.182606        3.760391
 C          -3.244565      -13.743752        2.565686
 C          -4.694512      -12.493602        4.361018
 C          -4.573404      -13.648903        3.327351
 H          -1.929993      -12.467662        1.371061
 H          -3.742866      -12.124187        1.228203
 H          -4.226683      -10.367340        4.484373
 H          -4.888900      -10.967768        2.942894
 H          -2.453130      -14.042281        3.288872
 H          -3.435864      -14.531698        1.801763
 H          -5.745928      -12.324470        4.664459
 H          -4.154350      -12.787778        5.299630
 H          -4.649895      -14.560219        3.886507
 H          -5.438007      -13.606936        2.646892
