20
 generated by VMD
 C         -29.328386      -90.425171      -25.015211
 N         -28.993689      -91.552246      -25.197258
 H         -32.353184      -91.355339      -27.177574
 H         -29.577326      -89.405251      -24.638990
 C         -33.085537      -90.864365      -27.775009
 C         -34.419102      -91.545692      -27.560390
 C         -33.074440      -89.664772      -28.625708
 C         -35.569023      -90.471527      -27.302530
 C         -34.268402      -88.748001      -28.364798
 C         -35.580795      -89.514969      -28.479214
 H         -34.278301      -92.146858      -26.647585
 H         -34.584976      -92.269058      -28.301888
 H         -32.188690      -89.051682      -28.384708
 H         -33.056702      -90.001617      -29.694788
 H         -35.405396      -90.050697      -26.276848
 H         -36.467979      -91.108574      -27.336361
 H         -34.216347      -87.944344      -29.121269
 H         -34.269958      -88.163002      -27.426603
 H         -36.497540      -88.892967      -28.607553
 H         -35.565254      -89.973595      -29.497444
