20
 generated by VMD
 C         -13.322630      -44.972965       -6.130288
 N         -14.301836      -44.427265       -6.160690
 H         -14.945621      -44.456661       -9.159937
 H         -14.501685      -43.911484      -10.751151
 C         -15.306653      -44.282703      -10.171662
 C         -16.458933      -43.271835      -10.017155
 C         -15.723680      -45.663448      -10.746678
 C         -16.963360      -43.117001      -11.442134
 C         -16.138062      -45.441841      -12.228773
 C         -17.234276      -44.412907      -12.280373
 H         -16.141043      -42.248810       -9.707685
 H         -17.165806      -43.709751       -9.317914
 H         -14.940020      -46.389633      -10.605503
 H         -16.590080      -46.016159      -10.252485
 H         -16.204218      -42.494625      -11.972638
 H         -17.893438      -42.544750      -11.456871
 H         -16.484486      -46.393948      -12.728474
 H         -15.264889      -45.059254      -12.728925
 H         -17.450058      -44.200619      -13.331738
 H         -18.170406      -44.740772      -11.943791
