20
 generated by VMD
 C         -38.540310     -109.760391      -36.210403
 N         -37.744564     -109.014763      -35.888309
 H         -41.434914     -110.563301      -37.046738
 H         -39.193050     -110.582115      -36.618900
 C         -41.737789     -111.174446      -36.184784
 C         -42.011150     -112.689140      -36.182415
 C         -42.377239     -110.467346      -34.993607
 C         -41.518852     -113.291054      -34.898800
 C         -41.773247     -111.086914      -33.732914
 C         -42.063995     -112.528595      -33.712711
 H         -41.505379     -113.242653      -37.030010
 H         -43.090466     -112.895264      -36.376083
 H         -41.933624     -109.519089      -34.882725
 H         -43.453712     -110.560745      -34.875111
 H         -40.380123     -113.283783      -35.016430
 H         -41.739464     -114.293823      -34.839424
 H         -42.187698     -110.602531      -32.868710
 H         -40.747929     -110.865524      -33.846725
 H         -41.478382     -112.933075      -32.878723
 H         -43.174362     -112.575226      -33.639679
