20
 generated by VMD
 C         -30.850798      -78.205360      -26.114515
 N         -31.803879      -77.578163      -25.805790
 H         -29.267355      -77.757690      -22.865349
 H         -30.066839      -78.846664      -26.056667
 C         -28.906885      -78.773872      -22.871435
 C         -27.416904      -78.925888      -23.157047
 C         -29.622450      -79.934151      -22.375883
 C         -26.678289      -79.768303      -22.092550
 C         -28.934479      -80.650871      -21.284838
 C         -27.480923      -81.088417      -21.873478
 H         -26.972019      -77.913750      -23.165886
 H         -27.381897      -79.475548      -24.170166
 H         -30.537045      -79.590202      -21.964806
 H         -29.907040      -80.606766      -23.289185
 H         -26.626099      -79.166298      -21.169750
 H         -25.627428      -80.069130      -22.248209
 H         -29.490204      -81.568542      -20.871906
 H         -28.862320      -79.951622      -20.422153
 H         -27.002523      -81.725418      -21.144180
 H         -27.526682      -81.619591      -22.743315
