20
 generated by VMD
 C         -61.460121     -154.653015      -53.889835
 N         -61.953869     -155.312866      -53.080936
 H         -58.166969     -154.720764      -52.337746
 H         -61.085152     -154.053711      -54.723164
 C         -57.260429     -154.577606      -51.752613
 C         -57.363346     -154.275192      -50.294228
 C         -55.886578     -154.460678      -52.400101
 C         -56.090004     -154.712173      -49.544300
 C         -54.554317     -154.809540      -51.615711
 C         -54.756363     -154.167358      -50.184265
 H         -58.296913     -154.884201      -50.025745
 H         -57.438801     -153.182999      -50.119251
 H         -55.947746     -154.863785      -53.397373
 H         -55.615978     -153.445892      -52.571266
 H         -56.111061     -155.823029      -49.376045
 H         -56.209988     -154.239059      -48.521927
 H         -53.603241     -154.532425      -52.175858
 H         -54.512386     -155.910599      -51.544548
 H         -53.879116     -154.600220      -49.533562
 H         -54.763729     -153.120590      -50.334404
