20
 generated by VMD
 C         -29.787958      -79.451675      -26.324722
 N         -30.577799      -78.747749      -25.869736
 H         -28.443878      -83.099701      -25.618752
 H         -29.211054      -80.076385      -27.076277
 C         -28.927025      -83.066658      -24.698462
 C         -28.561665      -82.029556      -23.647625
 C         -30.018093      -84.138405      -24.230570
 C         -29.768873      -81.499977      -22.915098
 C         -31.006472      -83.550797      -23.246405
 C         -30.467552      -82.680557      -22.220377
 H         -28.020660      -81.264565      -24.074780
 H         -27.898283      -82.527863      -22.955286
 H         -30.507603      -84.599205      -25.148628
 H         -29.557064      -84.958519      -23.626711
 H         -30.338194      -80.925491      -23.736393
 H         -29.539093      -80.924957      -22.068512
 H         -31.500078      -84.438606      -22.807335
 H         -31.795254      -83.021576      -23.881371
 H         -31.345289      -82.355110      -21.640711
 H         -29.703459      -83.275467      -21.554445
