20
 generated by VMD
 C         -28.423908      -82.352509      -26.313160
 N         -27.941614      -82.505287      -27.383718
 H         -30.908695      -84.011108      -26.378317
 H         -28.890766      -82.297256      -25.410378
 C         -31.286186      -84.604568      -25.632799
 C         -30.702171      -84.375519      -24.303890
 C         -31.905090      -85.823997      -26.035645
 C         -31.726101      -84.770088      -23.256153
 C         -32.863293      -86.288155      -24.983269
 C         -32.404366      -86.203835      -23.488214
 H         -30.270456      -83.391846      -24.099152
 H         -29.746418      -85.055595      -24.385220
 H         -32.370575      -85.811554      -27.009424
 H         -31.022017      -86.490746      -26.127617
 H         -32.457676      -83.924240      -23.180433
 H         -31.135103      -84.901176      -22.250610
 H         -33.088577      -87.372314      -25.122681
 H         -33.772671      -85.728012      -25.105335
 H         -33.257286      -86.339287      -22.931345
 H         -31.699881      -87.038109      -23.360477
