20
 generated by VMD
 C         -28.422541      -74.037140      -18.389481
 N         -29.193174      -73.362640      -17.842163
 H         -25.181581      -71.841423      -18.711256
 H         -27.761086      -74.708565      -19.115465
 C         -25.339695      -71.932999      -19.840303
 C         -24.756304      -73.143944      -20.570297
 C         -25.706083      -70.721748      -20.578634
 C         -25.257153      -73.230400      -22.127077
 C         -26.381563      -70.988388      -21.845963
 C         -25.444834      -71.780571      -22.772413
 H         -25.023981      -74.165901      -20.114576
 H         -23.676313      -73.039993      -20.522913
 H         -26.293564      -70.030922      -20.025032
 H         -24.729527      -70.146835      -20.753033
 H         -26.246387      -73.718376      -22.083851
 H         -24.661942      -73.945824      -22.710407
 H         -26.869858      -70.162407      -22.349030
 H         -27.233294      -71.580887      -21.692905
 H         -26.036184      -71.927528      -23.758127
 H         -24.411743      -71.317162      -22.948341
