20
 generated by VMD
 C         -21.976702      -55.334274      -17.386711
 N         -21.755270      -55.725315      -18.512474
 H         -21.659081      -56.654705      -14.126475
 H         -21.911730      -55.080746      -16.418354
 C         -21.302782      -57.721909      -14.082874
 C         -21.147190      -58.542950      -12.939383
 C         -20.542013      -58.092266      -15.379908
 C         -20.784924      -60.059708      -13.236672
 C         -20.152155      -59.547588      -15.553759
 C         -19.844912      -60.242603      -14.344731
 H         -22.029470      -58.554325      -12.298857
 H         -20.297962      -58.057117      -12.333496
 H         -21.142778      -57.793873      -16.243219
 H         -19.664068      -57.487247      -15.468008
 H         -21.702517      -60.581249      -13.460260
 H         -20.496971      -60.604565      -12.321673
 H         -19.393784      -59.728386      -16.301622
 H         -21.036436      -60.024467      -16.017149
 H         -19.659689      -61.272480      -14.503490
 H         -18.916636      -59.751278      -14.003945
