20
 generated by VMD
 C         -18.353371      -49.034389       -7.532980
 N         -19.154917      -49.791718       -7.721218
 H         -16.220007      -47.465775      -10.045723
 H         -16.742311      -48.935459      -10.866507
 C         -16.466391      -47.852802      -11.031889
 C         -15.191418      -47.809772      -11.958759
 C         -17.660536      -47.150555      -11.614999
 C         -15.499698      -48.007282      -13.442017
 C         -17.893438      -47.762680      -12.969763
 C         -16.805502      -47.410717      -13.950693
 H         -14.534628      -48.630974      -11.607723
 H         -14.647116      -46.844540      -11.923839
 H         -18.527346      -47.258904      -10.947192
 H         -17.372725      -46.115143      -11.797473
 H         -15.555988      -49.084644      -13.645239
 H         -14.651243      -47.513695      -13.943543
 H         -18.816193      -47.355675      -13.328486
 H         -18.096701      -48.861702      -12.785026
 H         -17.106384      -47.763168      -14.975148
 H         -16.719702      -46.285583      -14.044393
