20
 generated by VMD
 C         -75.956856     -202.617065      -66.392380
 N         -76.786552     -202.990921      -65.656166
 H         -75.862152     -200.158478      -68.942520
 H         -75.216782     -202.233154      -67.045509
 C         -74.869736     -199.678391      -69.003120
 C         -74.804146     -198.303619      -68.439644
 C         -73.907875     -200.137558      -70.067833
 C         -73.434242     -197.602509      -68.491348
 C         -73.167015     -198.895950      -70.744652
 C         -72.672371     -197.778931      -69.879715
 H         -75.114464     -198.353226      -67.390999
 H         -75.609039     -197.601028      -68.936836
 H         -73.080482     -200.734100      -69.719307
 H         -74.538208     -200.688171      -70.846550
 H         -72.748833     -197.980499      -67.758430
 H         -73.562401     -196.529358      -68.376785
 H         -73.809448     -198.657059      -71.655403
 H         -72.220963     -199.287430      -71.287590
 H         -71.612778     -197.901535      -69.709526
 H         -72.756516     -196.818771      -70.585831
