20
 generated by VMD
 C          -1.504452       -8.936558        0.138811
 N          -2.552841       -9.165641       -0.037159
 H          -2.364599      -10.500408        2.573001
 H          -2.197855      -11.697168        3.911336
 C          -2.833556      -11.370062        3.050255
 C          -2.826485      -12.488017        1.981895
 C          -4.197294      -11.197243        3.592575
 C          -3.283779      -13.815316        2.597836
 C          -4.704799      -12.502058        4.250681
 C          -4.623039      -13.695314        3.235845
 H          -1.840883      -12.679698        1.568544
 H          -3.471043      -12.279325        1.142305
 H          -4.180776      -10.384089        4.391553
 H          -4.951985      -10.776376        2.860510
 H          -2.572155      -14.166753        3.364022
 H          -3.387451      -14.634442        1.909689
 H          -5.676446      -12.383594        4.695741
 H          -4.049688      -12.758051        5.045333
 H          -4.843861      -14.626956        3.798253
 H          -5.481207      -13.611618        2.575795
