20
 generated by VMD
 C         -49.303699     -141.294357      -45.757336
 N         -48.699665     -141.558395      -44.841927
 H         -51.694389     -138.362701      -46.042400
 H         -49.925858     -140.928467      -46.589561
 C         -52.149857     -139.280594      -46.269058
 C         -52.798111     -139.450455      -47.774673
 C         -52.854130     -139.962738      -45.142319
 C         -53.239975     -140.837112      -48.066429
 C         -53.253128     -141.373413      -45.570011
 C         -54.153980     -141.343796      -46.887280
 H         -52.061058     -139.045059      -48.514717
 H         -53.723083     -138.819946      -47.874077
 H         -52.118702     -140.077606      -44.322075
 H         -53.711811     -139.321884      -44.860092
 H         -52.417046     -141.464554      -48.010441
 H         -53.628139     -140.919785      -49.094387
 H         -53.986839     -141.839981      -44.854465
 H         -52.340508     -141.925812      -45.778713
 H         -54.476501     -142.441559      -47.142666
 H         -55.109966     -140.682022      -46.730366
