20
 generated by VMD
 C         -49.728836     -133.187592      -46.848106
 N         -48.879158     -132.338974      -47.114052
 H         -48.179699     -134.120605      -44.308872
 H         -50.418655     -134.083755      -46.784641
 C         -48.998764     -134.712219      -43.952099
 C         -49.310104     -136.148651      -44.135334
 C         -49.879150     -133.797531      -43.194519
 C         -49.985859     -136.770966      -42.870827
 C         -50.588249     -134.584061      -42.033493
 C         -51.230183     -135.818222      -42.525761
 H         -48.350651     -136.707382      -44.288609
 H         -49.994312     -136.399506      -44.987061
 H         -49.322609     -132.960587      -42.796459
 H         -50.561367     -133.397552      -43.866852
 H         -49.356964     -136.868195      -41.964512
 H         -50.546318     -137.693634      -43.202023
 H         -51.379833     -133.968704      -41.522858
 H         -49.777748     -134.812180      -41.273666
 H         -51.850422     -136.175201      -41.716549
 H         -52.037102     -135.607635      -43.170734
