20
 generated by VMD
 C         -65.377312     -177.454330      -56.424202
 N         -66.068962     -176.983994      -55.635242
 H         -64.285919     -175.063766      -59.015694
 H         -64.764351     -177.813797      -57.271278
 C         -64.364708     -174.029755      -59.397015
 C         -65.334702     -173.192810      -58.769394
 C         -63.618538     -173.604095      -60.617363
 C         -64.909203     -171.668320      -58.847527
 C         -63.124203     -172.197510      -60.528919
 C         -64.181961     -171.233139      -60.068474
 H         -65.399712     -173.429626      -57.747952
 H         -66.385483     -173.279190      -59.288960
 H         -62.700741     -174.314880      -60.872238
 H         -64.425980     -173.684586      -61.441315
 H         -64.268616     -171.608505      -57.937000
 H         -65.806931     -171.100479      -58.605782
 H         -62.896679     -171.887405      -61.564838
 H         -62.242119     -172.069855      -59.928795
 H         -63.627026     -170.229996      -60.025799
 H         -64.856918     -171.062439      -60.899216
