20
 generated by VMD
 C         -75.732338     -202.339981      -66.306953
 N         -76.535492     -202.785126      -65.638153
 H         -75.823959     -200.102890      -68.944901
 H         -74.796837     -201.881363      -66.719177
 C         -74.866814     -199.545547      -68.973915
 C         -74.891220     -198.163773      -68.458565
 C         -73.868034     -199.945847      -70.082489
 C         -73.446022     -197.728836      -68.382523
 C         -73.273636     -198.721527      -70.836792
 C         -72.650215     -197.843399      -69.732315
 H         -75.430878     -198.163086      -67.539833
 H         -75.422997     -197.500076      -69.270638
 H         -72.947105     -200.445923      -69.617836
 H         -74.303337     -200.859344      -70.661270
 H         -72.961960     -198.380371      -67.635063
 H         -73.448563     -196.743744      -67.978882
 H         -74.177132     -198.254929      -71.242828
 H         -72.535072     -198.816223      -71.594582
 H         -71.765533     -198.285751      -69.483749
 H         -72.404861     -196.832840      -70.138878
