20
 generated by VMD
 C         -31.001915      -74.856071      -22.555344
 N         -31.203766      -75.630577      -21.741646
 H         -28.693499      -77.469803      -21.119747
 H         -30.599369      -74.528671      -23.592966
 C         -27.736372      -76.951973      -21.385397
 C         -26.696854      -77.731972      -22.129335
 C         -27.315704      -75.719948      -20.606289
 C         -25.783449      -76.740639      -22.944521
 C         -26.527811      -74.774292      -21.536165
 C         -25.261330      -75.552017      -22.163670
 H         -27.181776      -78.365395      -22.752628
 H         -26.167299      -78.224380      -21.387501
 H         -28.247562      -75.237556      -20.245304
 H         -26.681065      -75.959991      -19.704767
 H         -26.344225      -76.398300      -23.792906
 H         -24.913107      -77.232193      -23.378878
 H         -26.082724      -73.991119      -20.932093
 H         -27.203936      -74.449402      -22.276777
 H         -24.668327      -74.868835      -22.788050
 H         -24.691780      -76.064659      -21.452358
