20
 generated by VMD
 C         -29.403326      -74.648438      -19.614706
 N         -30.450491      -74.422318      -20.102095
 H         -25.759678      -73.363464      -18.866898
 H         -28.605312      -74.976288      -19.030661
 C         -25.703838      -73.354904      -19.920034
 C         -25.332426      -74.604370      -20.750671
 C         -25.455730      -71.953033      -20.480978
 C         -26.014231      -74.524384      -22.140638
 C         -26.092243      -71.885231      -21.894318
 C         -25.662149      -73.170784      -22.715120
 H         -25.637938      -75.543564      -20.186737
 H         -24.221865      -74.635086      -20.805624
 H         -25.795761      -71.235107      -19.736668
 H         -24.366245      -71.728905      -20.705706
 H         -27.139606      -74.547318      -22.002945
 H         -25.672108      -75.387505      -22.771454
 H         -25.810184      -71.072372      -22.511335
 H         -27.186749      -71.938339      -21.844500
 H         -26.147070      -73.173935      -23.649353
 H         -24.560083      -73.106873      -22.955143
