20
 generated by VMD
 C         -40.026112     -100.681175      -30.853582
 N         -40.419106      -99.897293      -31.622307
 H         -37.006062     -103.231239      -31.048439
 H         -39.613667     -101.357414      -30.089861
 C         -36.607506     -102.223976      -31.107836
 C         -36.444851     -101.494469      -32.379303
 C         -35.700203     -101.835213      -30.113182
 C         -36.304092      -99.972252      -32.415775
 C         -35.552010     -100.295174      -30.043039
 C         -35.288502      -99.539131      -31.320625
 H         -37.305618     -101.622429      -33.013126
 H         -35.540241     -101.860725      -32.921154
 H         -35.997066     -102.399612      -29.178860
 H         -34.711536     -102.318001      -30.366793
 H         -37.255844      -99.436340      -32.285477
 H         -35.829807      -99.607323      -33.372936
 H         -34.748333     -100.023842      -29.286968
 H         -36.445808      -99.902145      -29.688854
 H         -35.400166      -98.447334      -31.143373
 H         -34.204704      -99.764061      -31.635994
