20
 generated by VMD
 C         -46.708427     -124.788933      -37.972137
 N         -47.004303     -124.447525      -36.930363
 H         -44.793648     -122.210114      -37.691746
 H         -46.297802     -124.774628      -38.998257
 C         -44.804768     -122.349281      -38.766598
 C         -43.563622     -122.402260      -39.581814
 C         -45.973587     -121.643227      -39.339214
 C         -43.705845     -122.724663      -40.991470
 C         -46.110943     -121.780151      -40.862152
 C         -44.808258     -121.858482      -41.649971
 H         -43.093983     -123.355957      -39.053986
 H         -42.800579     -121.585129      -39.413765
 H         -46.950878     -121.895737      -38.852123
 H         -45.797749     -120.551636      -39.122524
 H         -43.986790     -123.878479      -40.999371
 H         -42.788513     -122.390373      -41.478275
 H         -46.726440     -120.951057      -41.162521
 H         -46.715736     -122.685059      -40.979530
 H         -44.907307     -122.269615      -42.657585
 H         -44.428814     -120.839119      -41.745914
