20
 generated by VMD
 C         -40.574020     -104.251091      -36.518410
 N         -39.698303     -105.007851      -36.593365
 H         -39.846634     -107.393341      -35.108624
 H         -41.386044     -103.602226      -36.314739
 C         -39.821827     -107.506271      -34.009304
 C         -38.605957     -106.803978      -33.389568
 C         -40.054043     -108.904655      -33.519108
 C         -38.588272     -106.937256      -31.863871
 C         -39.714043     -109.011353      -31.981779
 C         -38.428001     -108.496262      -31.524899
 H         -38.699234     -105.659576      -33.584503
 H         -37.698956     -107.173248      -33.933552
 H         -41.139168     -109.090630      -33.682072
 H         -39.509350     -109.518707      -34.233421
 H         -39.475628     -106.439713      -31.369795
 H         -37.678299     -106.361061      -31.525459
 H         -39.712910     -110.095894      -31.772327
 H         -40.601971     -108.562424      -31.489368
 H         -38.309765     -108.733597      -30.337553
 H         -37.675892     -109.016098      -32.050426
