20
 generated by VMD
 C          -4.092299      -20.695807        3.097162
 N          -4.615910      -19.739616        2.857935
 H          -5.148071      -19.004473       -0.299849
 H          -5.782230      -20.589024       -0.435410
 C          -5.915688      -19.565584       -0.854686
 C          -5.639470      -19.644814       -2.381480
 C          -7.323343      -19.119459       -0.475700
 C          -6.824912      -20.402924       -3.025755
 C          -8.434642      -19.774513       -1.270706
 C          -8.125710      -19.590361       -2.741704
 H          -4.700936      -20.176493       -2.531730
 H          -5.638133      -18.610435       -2.764547
 H          -7.464871      -19.261852        0.699340
 H          -7.381660      -18.017681       -0.781478
 H          -6.878256      -21.355328       -2.569151
 H          -6.724917      -20.600920       -4.092651
 H          -9.328729      -19.245777       -0.967767
 H          -8.531408      -20.798891       -0.992818
 H          -8.928652      -20.106697       -3.229801
 H          -7.931723      -18.583826       -3.146090
