20
 generated by VMD
 C          -5.910976      -21.068327        2.064339
 N          -6.138116      -22.069893        1.610590
 H          -5.001450      -18.727020       -0.895074
 H          -5.822268      -20.017094       -0.050965
 C          -5.811696      -19.532614       -1.083454
 C          -5.505099      -20.553614       -2.142691
 C          -7.138608      -18.812193       -1.448351
 C          -6.595499      -21.600653       -2.253595
 C          -8.312950      -19.806879       -1.411669
 C          -8.018244      -20.957211       -2.439860
 H          -4.479424      -20.972551       -1.948971
 H          -5.430825      -20.111786       -3.140712
 H          -7.338526      -17.899750       -0.810360
 H          -7.062073      -18.503611       -2.533404
 H          -6.648400      -22.122154       -1.283764
 H          -6.268462      -22.310793       -3.051537
 H          -9.259567      -19.286640       -1.705590
 H          -8.377614      -20.222078       -0.398397
 H          -8.754654      -21.777399       -2.302346
 H          -8.171840      -20.524746       -3.464134
