20
 generated by VMD
 C         -17.483379      -48.180599       -6.924989
 N         -16.931280      -47.237103       -6.702062
 H         -16.627398      -48.511276      -10.475989
 H         -15.556149      -48.630795      -11.843658
 C         -16.330772      -48.022411      -11.370214
 C         -15.735549      -46.682602      -10.990257
 C         -17.584940      -47.954063      -12.259676
 C         -15.522351      -45.784260      -12.278053
 C         -17.378845      -47.012897      -13.460852
 C         -16.848227      -45.681873      -13.080563
 H         -14.779650      -46.726879      -10.399071
 H         -16.371136      -46.147705      -10.279903
 H         -17.852720      -48.925476      -12.603574
 H         -18.431852      -47.634075      -11.661055
 H         -14.695294      -46.207939      -12.885149
 H         -15.218963      -44.772797      -11.963829
 H         -18.279652      -46.779785      -14.039152
 H         -16.669199      -47.662552      -14.113093
 H         -16.674524      -45.075203      -14.000226
 H         -17.614334      -45.164986      -12.433063
