20
 generated by VMD
 C         -38.912334      -98.819374      -27.767754
 N         -38.497200      -99.860275      -27.549099
 H         -37.460598      -98.219215      -30.913189
 H         -39.175499      -97.817886      -28.213140
 C         -36.418667      -97.810982      -30.882925
 C         -35.565926      -98.288742      -31.957729
 C         -35.676785      -97.281479      -29.594715
 C         -34.475998      -97.256798      -32.280190
 C         -34.418674      -96.390411      -29.913097
 C         -33.626312      -97.190773      -31.038813
 H         -36.022430      -98.322968      -32.936008
 H         -35.196915      -99.271301      -31.706108
 H         -36.365559      -96.794518      -28.900267
 H         -35.273155      -98.139511      -29.130222
 H         -34.804008      -96.286629      -32.587910
 H         -33.896049      -97.519394      -33.194569
 H         -33.797607      -96.188660      -29.015350
 H         -34.754856      -95.490433      -30.297535
 H         -32.621449      -96.778358      -31.003956
 H         -33.512592      -98.293121      -30.762339
