20
 generated by VMD
 C         -44.807747     -122.356003      -35.723038
 N         -44.853226     -123.132416      -34.810184
 H         -45.288750     -122.654938      -39.086544
 H         -44.640766     -121.777611      -36.579811
 C         -44.911720     -121.745506      -39.407131
 C         -43.519516     -121.445114      -39.630054
 C         -46.046478     -120.820168      -39.665424
 C         -43.328804     -120.252487      -40.683762
 C         -45.751308     -119.605957      -40.629883
 C         -44.277523     -119.146080      -40.429596
 H         -42.931263     -122.305176      -39.975563
 H         -43.039936     -121.224960      -38.739048
 H         -46.674126     -121.643471      -40.069206
 H         -46.530785     -120.431335      -38.723972
 H         -43.487633     -120.752151      -41.685387
 H         -42.326290     -119.796120      -40.457420
 H         -46.439484     -118.853577      -40.178146
 H         -46.048801     -119.955627      -41.698555
 H         -44.071514     -118.329681      -41.118687
 H         -44.171864     -118.745010      -39.388054
