20
 generated by VMD
 C         -38.655243     -109.835083      -36.026199
 N         -37.814304     -109.044327      -35.979870
 H         -42.388329     -110.428833      -37.103420
 H         -39.480511     -110.491829      -36.052628
 C         -42.059570     -111.051613      -36.333553
 C         -41.795723     -112.536469      -36.238941
 C         -42.316265     -110.385590      -34.910313
 C         -41.372761     -113.259682      -34.897007
 C         -41.685329     -110.970299      -33.672596
 C         -41.843643     -112.430374      -33.617649
 H         -40.957092     -112.704063      -36.908989
 H         -42.723522     -113.084114      -36.513771
 H         -42.009945     -109.288094      -34.973282
 H         -43.418423     -110.195969      -34.803738
 H         -40.250839     -113.399101      -34.743839
 H         -41.808922     -114.248184      -34.829330
 H         -42.060135     -110.480858      -32.795086
 H         -40.656162     -110.719345      -33.619038
 H         -41.462170     -112.849342      -32.783066
 H         -42.921928     -112.733131      -33.421383
