20
 generated by VMD
 C         -69.195282     -180.016769      -62.129246
 N         -69.614670     -181.087952      -62.320366
 H         -66.684914     -180.530899      -59.194138
 H         -68.722816     -179.102402      -61.888626
 C         -66.238434     -179.589371      -59.673450
 C         -65.387154     -179.869797      -60.854233
 C         -66.076332     -178.375198      -58.855556
 C         -65.379753     -178.595123      -61.741436
 C         -66.062775     -177.158432      -59.839279
 C         -65.001877     -177.403580      -60.959328
 H         -65.803116     -180.741287      -61.415592
 H         -64.399178     -180.101807      -60.380318
 H         -66.783722     -178.151154      -58.130978
 H         -65.104660     -178.497772      -58.306149
 H         -66.297714     -178.546188      -62.302738
 H         -64.694290     -178.833588      -62.567871
 H         -65.828827     -176.183472      -59.360989
 H         -67.074554     -177.019669      -60.184998
 H         -64.896133     -176.410233      -61.518066
 H         -64.054832     -177.624924      -60.334335
