20
 generated by VMD
 C         -40.370728     -101.012131      -32.288952
 N         -41.125721     -100.831757      -31.436466
 H         -38.004833     -103.478828      -32.187775
 H         -39.498402     -101.231766      -32.847637
 C         -37.201794     -102.763641      -31.985178
 C         -36.136826     -102.436180      -32.831329
 C         -37.206173     -102.418312      -30.473614
 C         -35.291931     -101.270973      -32.415058
 C         -36.522884     -101.156395      -30.250088
 C         -35.182961     -101.151482      -30.904202
 H         -36.519115     -102.152626      -33.766891
 H         -35.530682     -103.319946      -32.986481
 H         -38.332817     -102.307350      -30.277304
 H         -36.889229     -103.189041      -29.834759
 H         -35.676079     -100.275085      -32.767921
 H         -34.296463     -101.403366      -32.851223
 H         -36.336689     -100.933182      -29.232864
 H         -37.174622     -100.272873      -30.700460
 H         -34.549393     -100.326691      -30.576067
 H         -34.526596     -101.968811      -30.623968
