20
 generated by VMD
 C         -49.149231     -127.141785      -39.630447
 N         -50.313763     -127.254517      -39.448212
 H         -46.602791     -127.201012      -42.607121
 H         -48.180519     -127.004570      -40.081963
 C         -46.439655     -126.453110      -41.851082
 C         -45.340199     -126.991913      -40.862610
 C         -46.558041     -124.956360      -41.971786
 C         -44.238605     -125.910049      -40.411247
 C         -45.444885     -124.019737      -41.480114
 C         -44.913696     -124.576706      -40.195759
 H         -44.884987     -127.957298      -41.188824
 H         -45.865372     -127.359184      -40.003654
 H         -46.912876     -124.722435      -42.941296
 H         -47.564850     -124.669930      -41.435749
 H         -43.305832     -125.924530      -40.999657
 H         -43.915730     -126.305092      -39.435848
 H         -45.926731     -123.001312      -41.457886
 H         -44.589470     -123.913910      -42.234467
 H         -44.320213     -123.804222      -39.809719
 H         -45.787819     -124.713577      -39.510727
