20
 generated by VMD
 C         -59.343147     -152.178604      -50.755768
 N         -59.495747     -153.085876      -50.037453
 H         -57.043453     -151.348251      -48.916458
 H         -59.283394     -151.361771      -51.427433
 C         -56.060177     -151.018799      -49.227661
 C         -55.198406     -152.077530      -49.864807
 C         -55.506958     -149.584503      -49.366730
 C         -54.499207     -151.615356      -51.096672
 C         -54.685028     -149.096878      -50.563992
 C         -53.877205     -150.264481      -51.037243
 H         -55.827271     -152.990463      -50.174301
 H         -54.472687     -152.442200      -49.091011
 H         -56.286621     -148.880219      -49.142632
 H         -54.806767     -149.631729      -48.486305
 H         -55.146465     -151.758194      -51.960258
 H         -53.595715     -152.259232      -51.236500
 H         -54.126690     -148.262238      -50.329132
 H         -55.473160     -148.712997      -51.251030
 H         -53.425072     -149.997238      -51.997089
 H         -52.859722     -150.335266      -50.471638
