20
 generated by VMD
 C         -75.274345     -201.435364      -66.302109
 N         -75.769165     -202.303940      -65.668221
 H         -76.244850     -199.462830      -69.284744
 H         -74.694733     -200.653809      -66.702599
 C         -75.164520     -199.190506      -69.221176
 C         -74.888878     -198.117905      -68.171135
 C         -74.086632     -199.736420      -70.098495
 C         -73.351585     -197.996414      -68.085564
 C         -73.056999     -198.681076      -70.631577
 C         -72.888840     -197.597641      -69.544098
 H         -75.336525     -198.414093      -67.175934
 H         -75.498924     -197.272644      -68.420830
 H         -73.567215     -200.499161      -69.499313
 H         -74.461380     -200.171829      -70.974930
 H         -72.903481     -198.944122      -67.795135
 H         -73.105583     -197.328506      -67.301804
 H         -73.341324     -198.113510      -71.547859
 H         -72.181946     -199.373993      -70.801338
 H         -71.819992     -197.100922      -69.449219
 H         -73.455093     -196.771118      -69.785294
