20
 generated by VMD
 C         -30.942062      -79.704155      -26.159382
 N         -30.858366      -78.561028      -26.261354
 H         -28.422535      -81.868271      -25.622608
 H         -31.088884      -80.636826      -25.784859
 C         -28.851624      -81.846191      -24.605181
 C         -27.804720      -81.537483      -23.418110
 C         -30.091120      -82.748627      -24.259987
 C         -28.523561      -81.282646      -22.094513
 C         -30.691746      -82.537727      -22.925653
 C         -29.715204      -82.401085      -21.835365
 H         -27.276691      -80.574799      -23.632448
 H         -27.126308      -82.391670      -23.370701
 H         -30.896959      -82.760841      -24.991661
 H         -29.642773      -83.835312      -24.169155
 H         -29.042595      -80.372658      -22.020834
 H         -27.744396      -81.258759      -21.253386
 H         -31.448494      -83.370514      -22.696598
 H         -31.253975      -81.568520      -22.859682
 H         -30.225735      -82.060524      -20.903387
 H         -29.216181      -83.345406      -21.691288
