20
 generated by VMD
 C         -67.254486     -191.633636      -66.240814
 N         -67.130661     -191.118866      -67.267303
 H         -70.270668     -190.103073      -66.381027
 H         -67.592987     -192.023453      -65.284348
 C         -71.000168     -190.154266      -65.606781
 C         -72.058662     -191.226395      -65.645462
 C         -71.016129     -189.078262      -64.478683
 C         -73.374023     -190.854828      -64.933136
 C         -72.173355     -189.149216      -63.464695
 C         -73.042839     -190.409912      -63.494633
 H         -71.583801     -191.964081      -65.041916
 H         -72.249413     -191.559097      -66.644287
 H         -70.092583     -189.195282      -63.893303
 H         -71.168709     -188.125504      -65.016418
 H         -74.106079     -191.675964      -64.823341
 H         -73.938675     -190.051529      -65.464134
 H         -72.884552     -188.302750      -63.497448
 H         -71.901840     -189.074036      -62.416279
 H         -72.510948     -191.151001      -62.942032
 H         -74.104546     -190.299057      -63.181553
