20
 generated by VMD
 C         -45.498623     -123.452560      -35.437088
 N         -46.093700     -124.487167      -35.355705
 H         -45.055237     -122.646095      -38.962494
 H         -45.095089     -122.457184      -35.483692
 C         -44.728764     -121.573158      -39.140488
 C         -43.383904     -121.417328      -39.616001
 C         -45.862850     -120.617775      -39.464474
 C         -43.323860     -121.013840      -41.102268
 C         -45.906334     -120.432571      -40.987480
 C         -44.459660     -120.055870      -41.524822
 H         -42.695183     -122.205185      -39.458897
 H         -42.879108     -120.634460      -38.919178
 H         -46.841114     -121.073517      -39.119846
 H         -45.752468     -119.619011      -38.890999
 H         -43.594780     -121.930916      -41.676601
 H         -42.329178     -120.966179      -41.497753
 H         -46.553333     -119.691429      -41.135933
 H         -46.164875     -121.305984      -41.542530
 H         -44.516987     -119.942818      -42.656689
 H         -44.163166     -119.128166      -41.036217
