20
 generated by VMD
 C         -59.921589     -171.618500      -55.254890
 N         -59.509373     -172.633179      -54.884541
 H         -63.012001     -170.461151      -56.655621
 H         -60.222160     -170.649109      -55.640366
 C         -63.444248     -169.526794      -56.902390
 C         -62.677719     -168.384186      -57.373501
 C         -64.886955     -169.224915      -56.857281
 C         -63.054295     -167.870743      -58.763718
 C         -65.424744     -168.726852      -58.242321
 C         -64.624084     -167.571640      -58.909332
 H         -61.685936     -168.702469      -57.284229
 H         -62.769089     -167.534409      -56.533375
 H         -65.310600     -170.198090      -56.426350
 H         -65.156006     -168.428925      -56.040428
 H         -62.861900     -168.709656      -59.521358
 H         -62.554253     -166.945297      -59.033051
 H         -66.459869     -168.506561      -58.199902
 H         -65.468323     -169.588135      -58.852131
 H         -64.754715     -167.451950      -60.024223
 H         -64.890251     -166.611694      -58.523594
