20
 generated by VMD
 C         -40.953865     -101.240280      -32.808094
 N         -42.059521     -101.497330      -32.952141
 H         -38.530807     -103.091827      -32.503994
 H         -39.879799     -101.190361      -32.464092
 C         -37.632240     -102.766617      -32.019608
 C         -36.443539     -102.733154      -32.980495
 C         -37.443569     -102.891136      -30.539019
 C         -35.275124     -102.031891      -32.348431
 C         -36.120785     -102.187378      -30.006193
 C         -34.960728     -102.459381      -30.817598
 H         -36.775917     -102.153893      -33.800003
 H         -36.322407     -103.759087      -33.314137
 H         -38.438168     -102.397156      -30.237017
 H         -37.407639     -103.921631      -30.237823
 H         -35.556355     -100.940674      -32.210361
 H         -34.438560     -102.127815      -33.033390
 H         -35.796795     -102.473259      -29.065258
 H         -36.467873     -101.099251      -29.890373
 H         -34.084118     -101.932381      -30.418486
 H         -34.633232     -103.512840      -30.867537
