20
 generated by VMD
 C         -29.432537      -74.112236      -20.376637
 N         -30.192316      -74.982407      -20.250309
 H         -26.364548      -74.135406      -18.955374
 H         -28.751373      -73.184959      -20.603254
 C         -26.331036      -74.005707      -20.028791
 C         -25.893389      -75.196175      -20.866222
 C         -25.895840      -72.607452      -20.385164
 C         -26.011980      -74.930977      -22.313271
 C         -26.090549      -72.403915      -21.845533
 C         -25.473606      -73.539963      -22.698650
 H         -26.595255      -75.956924      -20.642637
 H         -24.846834      -75.346413      -20.608942
 H         -26.501299      -71.909660      -19.888258
 H         -24.870253      -72.413368      -20.299259
 H         -27.081219      -75.161308      -22.596935
 H         -25.401543      -75.574181      -22.952461
 H         -25.652447      -71.501205      -22.274155
 H         -27.154963      -72.183083      -22.137634
 H         -25.769094      -73.446381      -23.750586
 H         -24.347931      -73.599792      -22.696829
