20
 generated by VMD
 C         -72.282196     -199.249115      -65.069275
 N         -71.137505     -199.221161      -64.922272
 H         -71.778206     -196.346954      -66.780029
 H         -73.348625     -199.493652      -65.003029
 C         -72.548294     -195.855484      -67.341515
 C         -72.869240     -194.513885      -66.993599
 C         -72.884293     -196.491608      -68.606255
 C         -73.842285     -193.879089      -68.017891
 C         -74.319931     -196.122787      -69.018677
 C         -74.934074     -194.914093      -68.327515
 H         -72.014618     -193.831253      -67.165222
 H         -73.125229     -194.477051      -66.004219
 H         -72.133736     -196.118973      -69.375320
 H         -72.622612     -197.599747      -68.567947
 H         -73.291992     -193.583328      -68.957924
 H         -74.362480     -193.039688      -67.475243
 H         -74.871849     -197.050034      -68.755745
 H         -74.422668     -196.080521      -70.091522
 H         -75.612625     -194.450485      -69.052475
 H         -75.393265     -195.331818      -67.465050
