20
 generated by VMD
 C         -53.008305     -146.758102      -44.670746
 N         -51.842155     -146.863449      -44.794537
 H         -54.142719     -146.327896      -47.306889
 H         -54.113468     -146.589355      -44.582172
 C         -54.137260     -145.583374      -48.040997
 C         -53.033524     -145.304108      -49.008686
 C         -54.870049     -144.232758      -47.776936
 C         -53.446320     -144.522171      -50.193104
 C         -55.314579     -143.472809      -48.947803
 C         -54.146111     -143.289352      -49.886829
 H         -52.617508     -146.297714      -49.375237
 H         -52.299374     -144.812927      -48.346241
 H         -55.693359     -144.448639      -47.011639
 H         -54.074921     -143.573700      -47.296844
 H         -54.010334     -145.360840      -50.754883
 H         -52.403328     -144.343903      -50.708225
 H         -55.687748     -142.366364      -48.764339
 H         -56.096363     -144.007599      -49.443855
 H         -54.571362     -142.891281      -50.883362
 H         -53.528870     -142.427826      -49.534233
