20
 generated by VMD
 C         -79.663582     -205.390991      -71.732666
 N         -79.836418     -206.532944      -71.552010
 H         -76.396095     -204.249207      -72.123840
 H         -79.654877     -204.314911      -71.659470
 C         -76.155289     -204.130005      -71.051003
 C         -75.457909     -202.867935      -70.550659
 C         -76.487572     -205.205505      -70.046402
 C         -74.038589     -203.257050      -70.237724
 C         -75.198486     -205.396469      -69.096626
 C         -73.853516     -204.750076      -69.768166
 H         -75.945419     -202.369049      -69.692932
 H         -75.393654     -202.124863      -71.310623
 H         -77.369896     -205.009811      -69.283783
 H         -76.761154     -206.115417      -70.664932
 H         -73.461975     -202.506378      -69.595482
 H         -73.507935     -203.292404      -71.201981
 H         -74.991112     -206.509308      -69.143898
 H         -75.413551     -205.066437      -68.130821
 H         -72.979980     -204.832886      -69.099388
 H         -73.552353     -205.305481      -70.632881
