20
 generated by VMD
 C         -70.822098     -181.568939      -64.248138
 N         -70.237602     -182.375290      -63.614784
 H         -68.550934     -181.032288      -61.028801
 H         -71.368507     -180.825470      -64.751129
 C         -67.551117     -180.816818      -60.752300
 C         -66.542755     -181.736755      -60.583237
 C         -67.282333     -179.373169      -60.422962
 C         -65.046616     -181.170441      -60.786690
 C         -65.880424     -178.921341      -60.909595
 C         -64.815186     -179.784576      -60.311295
 H         -66.572090     -182.631897      -61.199635
 H         -66.624847     -182.053482      -59.585957
 H         -68.134895     -178.734451      -60.787716
 H         -67.282883     -179.456192      -59.395714
 H         -64.698029     -181.329834      -61.844769
 H         -64.380173     -181.905365      -60.250477
 H         -65.725243     -177.899261      -60.527660
 H         -65.894783     -178.972702      -61.995342
 H         -63.703716     -179.559235      -60.605949
 H         -64.843987     -179.659348      -59.245396
