20
 generated by VMD
 C         -30.693489      -78.364952      -25.248339
 N         -31.307056      -77.371277      -24.989830
 H         -29.022038      -76.954910      -22.362810
 H         -30.244377      -79.342468      -25.088625
 C         -28.705677      -77.944847      -22.510853
 C         -27.501143      -78.256104      -23.352859
 C         -29.481422      -79.131783      -22.048265
 C         -26.510710      -79.039169      -22.481567
 C         -28.622334      -80.214180      -21.311621
 C         -27.252850      -80.304428      -21.954763
 H         -27.051670      -77.384590      -23.790504
 H         -27.828876      -78.790359      -24.258698
 H         -30.186514      -78.893646      -21.333498
 H         -30.031172      -79.670158      -22.855249
 H         -26.323494      -78.281898      -21.684683
 H         -25.586502      -79.425041      -22.956123
 H         -28.993954      -81.277351      -21.373819
 H         -28.487162      -80.033852      -20.230835
 H         -26.613787      -80.703079      -21.057505
 H         -27.227793      -81.079147      -22.786041
