20
 generated by VMD
 C          -6.680245      -22.642838        2.030318
 N          -6.161420      -22.872995        2.981409
 H          -5.647330      -20.016788       -0.467529
 H          -7.194015      -21.080669       -0.297886
 C          -6.508762      -20.506910       -1.011729
 C          -6.000289      -21.572990       -1.957719
 C          -7.209309      -19.341311       -1.722663
 C          -6.986340      -22.053875       -2.941488
 C          -8.253588      -19.843981       -2.760400
 C          -7.680084      -20.923466       -3.657583
 H          -5.560456      -22.435431       -1.454070
 H          -5.257809      -21.116516       -2.545494
 H          -7.576407      -18.610998       -0.995987
 H          -6.497324      -18.712984       -2.227805
 H          -7.725214      -22.600273       -2.369520
 H          -6.570288      -22.799841       -3.614259
 H          -8.640149      -19.003399       -3.332591
 H          -9.129381      -20.252924       -2.217579
 H          -8.432875      -21.270025       -4.391078
 H          -6.885337      -20.473824       -4.263789
