20
 generated by VMD
 C         -47.508163     -139.327682      -45.799156
 N         -46.736626     -138.800858      -46.430096
 H         -50.893356     -138.412933      -45.014103
 H         -48.220089     -139.749588      -45.131031
 C         -51.814495     -138.963196      -45.203297
 C         -51.923752     -139.293747      -46.605331
 C         -53.071465     -138.608215      -44.458191
 C         -52.997787     -140.257233      -46.953514
 C         -54.161137     -139.612289      -44.770523
 C         -54.248379     -139.803436      -46.237328
 H         -50.876003     -139.705185      -46.829483
 H         -51.954269     -138.415115      -47.261112
 H         -52.805733     -138.483612      -43.360779
 H         -53.463177     -137.586716      -44.771946
 H         -52.708061     -141.289246      -46.642441
 H         -53.239162     -140.304703      -47.999535
 H         -55.040157     -139.353806      -44.219090
 H         -54.023865     -140.747726      -44.480179
 H         -55.109779     -140.390442      -46.473255
 H         -54.532063     -138.949539      -46.661697
