20
 generated by VMD
 C         -44.641750     -122.360458      -36.053291
 N         -44.053986     -121.515732      -35.524822
 H         -44.949802     -122.865326      -39.597500
 H         -45.024250     -123.230080      -36.611835
 C         -44.927769     -121.743423      -39.551651
 C         -43.527584     -121.187935      -39.437996
 C         -46.037395     -120.701447      -39.384579
 C         -43.247379     -119.948318      -40.197575
 C         -45.696796     -119.381355      -40.011345
 C         -44.332932     -118.868782      -39.816952
 H         -42.759319     -122.025276      -39.801121
 H         -43.201187     -120.953712      -38.411312
 H         -47.027649     -121.061577      -39.660793
 H         -46.107571     -120.591660      -38.303795
 H         -43.207924     -120.208618      -41.249702
 H         -42.147121     -119.617989      -40.115383
 H         -46.478462     -118.686150      -39.914909
 H         -45.984020     -119.603996      -41.049519
 H         -44.283875     -118.002037      -40.466133
 H         -44.121082     -118.518906      -38.818863
