20
 generated by VMD
 C         -63.593063     -174.680466      -56.305660
 N         -62.579102     -175.278809      -56.351933
 H         -66.320503     -173.292557      -58.300934
 H         -64.474701     -174.016174      -56.299496
 C         -65.537971     -172.572540      -58.652103
 C         -65.697762     -171.063553      -58.500198
 C         -64.595512     -173.021454      -59.773903
 C         -64.395851     -170.529327      -58.086674
 C         -63.321342     -172.295837      -59.681564
 C         -63.440006     -170.910919      -59.205402
 H         -66.543228     -170.886337      -57.815449
 H         -66.038376     -170.730362      -59.541279
 H         -64.392906     -174.123291      -59.584579
 H         -65.123360     -172.937225      -60.784664
 H         -63.901100     -170.923584      -57.123489
 H         -64.314407     -169.395218      -58.050964
 H         -62.961067     -172.311661      -60.696522
 H         -62.481327     -172.772888      -59.179638
 H         -62.445988     -170.570724      -58.834259
 H         -63.638428     -170.172562      -60.027840
