20
 generated by VMD
 C         -38.699131     -107.979088      -37.381096
 N         -38.967308     -107.061638      -38.003254
 H         -40.219921     -108.249168      -34.816307
 H         -38.424496     -108.931801      -37.022156
 C         -40.571571     -109.272484      -34.598938
 C         -39.552887     -110.403870      -34.327713
 C         -41.923088     -109.412018      -34.068909
 C         -39.822502     -111.155121      -33.030636
 C         -42.052929     -110.159500      -32.750710
 C         -41.299889     -111.490860      -32.880745
 H         -38.670528     -109.812515      -34.318279
 H         -39.692860     -111.022858      -35.210991
 H         -42.262020     -108.369453      -33.908539
 H         -42.572235     -109.917664      -34.751385
 H         -39.517818     -110.639008      -32.074589
 H         -39.452442     -112.277557      -33.035633
 H         -43.069569     -110.254364      -32.543098
 H         -41.705147     -109.732948      -31.836861
 H         -41.492558     -112.187256      -31.995251
 H         -41.603329     -112.094414      -33.682930
