20
 generated by VMD
 C         -11.621142      -39.523792       -7.054077
 N         -10.870020      -39.762810       -6.245030
 H         -13.204577      -40.655460       -9.064971
 H         -14.761188      -39.873398       -9.144422
 C         -14.322517      -40.892929       -9.236647
 C         -14.851578      -41.668537       -8.042712
 C         -14.642850      -41.532757      -10.521977
 C         -16.338392      -41.941505       -8.253119
 C         -16.119154      -41.513660      -10.706219
 C         -16.757757      -42.372322       -9.617414
 H         -14.661701      -41.232506       -7.037060
 H         -14.250940      -42.567909       -8.023851
 H         -14.126078      -40.939735      -11.294057
 H         -14.247483      -42.494839      -10.583685
 H         -16.865019      -41.020519       -7.981787
 H         -16.756586      -42.623734       -7.498047
 H         -16.402382      -41.948647      -11.623117
 H         -16.567545      -40.439922      -10.619184
 H         -17.880024      -42.249199       -9.758673
 H         -16.410172      -43.419647       -9.799428
