20
 generated by VMD
 C         -36.910576      -97.908096      -26.389425
 N         -35.906166      -98.367958      -26.010750
 H         -36.029537      -95.620590      -28.339123
 H         -37.888931      -97.530678      -26.561655
 C         -35.535408      -95.253853      -29.221672
 C         -35.694695      -96.215981      -30.394476
 C         -34.204227      -94.603683      -29.070288
 C         -35.277946      -95.610901      -31.735559
 C         -33.883198      -93.894470      -30.398190
 C         -33.952946      -94.802635      -31.581947
 H         -36.671619      -96.723427      -30.267681
 H         -34.938278      -97.064194      -30.232161
 H         -34.133160      -93.844872      -28.298733
 H         -33.536942      -95.464943      -28.890852
 H         -36.073021      -95.031525      -32.136723
 H         -35.144424      -96.527298      -32.388699
 H         -32.837406      -93.589676      -30.286568
 H         -34.469765      -92.923149      -30.616440
 H         -33.706425      -94.328369      -32.490818
 H         -33.115479      -95.642662      -31.273464
