20
 generated by VMD
 C         -39.586288     -107.653793      -37.782555
 N         -39.056721     -106.601646      -37.849838
 H         -39.387341     -108.472717      -34.990086
 H         -40.229881     -108.534668      -37.586445
 C         -39.912933     -109.131516      -34.381184
 C         -39.067184     -110.186028      -33.740440
 C         -41.436462     -109.026260      -34.142742
 C         -39.752365     -110.974922      -32.624538
 C         -41.922451     -109.875572      -32.929726
 C         -41.282501     -111.196335      -32.742809
 H         -38.141197     -109.824509      -33.231621
 H         -38.892689     -110.994827      -34.414246
 H         -41.810318     -108.043022      -34.107433
 H         -41.882923     -109.557549      -35.005402
 H         -39.453136     -110.434265      -31.720140
 H         -39.350193     -112.109337      -32.528576
 H         -43.061275     -109.950806      -32.927917
 H         -41.843746     -109.298447      -32.061932
 H         -41.658699     -111.690208      -31.788752
 H         -41.477028     -111.775093      -33.541595
