20
 generated by VMD
 C         -28.434198      -85.766518      -26.840933
 N         -27.391066      -85.731438      -26.350056
 H         -31.232450      -85.232033      -25.724901
 H         -29.465792      -85.615074      -27.326340
 C         -31.873608      -86.088158      -25.645893
 C         -32.520454      -86.475395      -24.344534
 C         -32.004856      -86.925560      -26.914410
 C         -33.916996      -87.190559      -24.585766
 C         -33.481030      -87.427605      -27.075607
 C         -33.834290      -88.172424      -25.791796
 H         -32.665180      -85.597282      -23.807409
 H         -31.675774      -87.152054      -24.019644
 H         -31.634979      -86.535339      -27.900311
 H         -31.473726      -87.855576      -26.797993
 H         -34.760513      -86.469696      -24.904337
 H         -34.168655      -87.834229      -23.705332
 H         -33.513828      -88.181984      -27.874496
 H         -34.123356      -86.583466      -27.283333
 H         -34.753586      -88.692162      -25.821423
 H         -33.116512      -89.003433      -25.653313
