20
 generated by VMD
 C         -56.078743     -149.975616      -47.497192
 N         -57.113098     -150.222198      -46.987129
 H         -53.214436     -147.896454      -47.442394
 H         -55.171867     -149.610153      -48.052105
 C         -53.764797     -147.753296      -48.357960
 C         -53.153538     -148.455185      -49.598392
 C         -54.694481     -146.490280      -48.440372
 C         -54.118866     -148.280045      -50.781250
 C         -55.439960     -146.323517      -49.774036
 C         -54.847267     -146.969193      -51.105392
 H         -53.082214     -149.440399      -49.288708
 H         -52.100422     -148.123444      -49.889595
 H         -55.461090     -146.377991      -47.663719
 H         -53.897556     -145.689285      -48.391693
 H         -54.895004     -149.031174      -50.661770
 H         -53.671383     -148.563950      -51.745140
 H         -55.611137     -145.237686      -49.984615
 H         -56.445873     -146.907639      -49.655830
 H         -55.548336     -147.122772      -51.906963
 H         -54.092838     -146.290421      -51.527981
