20
 generated by VMD
 C         -25.771126      -71.260010      -17.140335
 N         -25.584757      -71.541313      -16.009388
 H         -24.299997      -69.125687      -18.574173
 H         -26.141144      -70.976898      -18.071991
 C         -24.559620      -69.110138      -19.651299
 C         -23.874205      -70.074287      -20.524534
 C         -25.790825      -68.404938      -19.975952
 C         -24.906420      -70.886330      -21.270489
 C         -26.782057      -69.319603      -20.706608
 C         -26.114147      -70.222145      -21.747623
 H         -23.134483      -70.642860      -20.087475
 H         -23.262426      -69.590126      -21.339148
 H         -26.268553      -68.126511      -19.049671
 H         -25.572649      -67.617622      -20.687428
 H         -25.078062      -71.776314      -20.601608
 H         -24.377476      -71.337433      -22.111719
 H         -27.569670      -68.759727      -21.283113
 H         -27.189137      -70.010979      -19.889456
 H         -26.664694      -71.061249      -22.187614
 H         -25.774981      -69.509361      -22.556646
