20
 generated by VMD
 C         -38.800877     -111.483353      -36.491314
 N         -38.345680     -110.471535      -36.750427
 H         -40.544903     -114.563744      -34.754295
 H         -39.292149     -112.358795      -36.128876
 C         -41.338215     -114.045654      -35.158375
 C         -41.672302     -114.140526      -36.577656
 C         -41.963974     -112.979759      -34.251846
 C         -43.183254     -114.082100      -36.758179
 C         -43.480942     -113.063622      -34.590645
 C         -43.822727     -112.867126      -36.069836
 H         -41.168751     -115.033211      -37.065563
 H         -41.251842     -113.350502      -37.157597
 H         -41.604557     -113.166832      -33.227528
 H         -41.589294     -111.920746      -34.467262
 H         -43.746479     -114.906052      -36.324932
 H         -43.363377     -114.063248      -37.795563
 H         -44.184006     -112.450539      -33.880962
 H         -43.748394     -114.112801      -34.145634
 H         -44.850216     -113.003250      -36.313183
 H         -43.441132     -111.886536      -36.504780
