20
 generated by VMD
 C         -28.056433      -84.634575      -26.063257
 N         -28.354906      -84.363754      -27.160448
 H         -31.441816      -84.563667      -26.140257
 H         -27.894281      -84.802414      -25.071003
 C         -31.486328      -85.562531      -25.808954
 C         -31.698654      -85.723450      -24.386818
 C         -31.925034      -86.658241      -26.705942
 C         -33.021515      -86.306725      -24.025520
 C         -33.310070      -87.107056      -26.416187
 C         -33.405632      -87.530594      -24.884575
 H         -31.655064      -84.759514      -23.973120
 H         -30.844021      -86.348579      -24.028715
 H         -31.844784      -86.187088      -27.723335
 H         -31.274017      -87.478401      -26.696932
 H         -33.765114      -85.451530      -24.179888
 H         -32.785088      -86.617226      -22.981560
 H         -33.657833      -87.992920      -26.999905
 H         -34.096584      -86.329239      -26.474392
 H         -34.422886      -87.961250      -24.799118
 H         -32.657871      -88.409096      -24.637665
