20
 generated by VMD
 C         -58.584167     -161.830688      -56.518745
 N         -57.884670     -160.980743      -56.075302
 H         -59.675045     -165.151962      -55.224251
 H         -59.175217     -162.656174      -56.888283
 C         -60.268013     -164.244934      -54.827496
 C         -59.876778     -163.641968      -53.447205
 C         -61.728508     -164.325302      -55.346428
 C         -60.692379     -162.329590      -53.343571
 C         -62.585526     -163.247086      -54.848587
 C         -62.284016     -162.695450      -53.445980
 H         -58.788559     -163.517609      -53.444344
 H         -60.232670     -164.221161      -52.642269
 H         -61.741524     -164.527267      -56.489429
 H         -62.164886     -165.249527      -55.023289
 H         -60.341686     -161.692978      -54.097305
 H         -60.391315     -161.704514      -52.463951
 H         -63.711369     -163.642349      -54.861691
 H         -62.351749     -162.385620      -55.502708
 H         -62.769485     -161.715118      -53.414608
 H         -62.665863     -163.215851      -52.587521
