20
 generated by VMD
 C         -50.172447     -131.104691      -46.544926
 N         -50.291561     -131.442841      -47.636772
 H         -48.266090     -131.864944      -44.086071
 H         -49.831791     -130.878174      -45.547192
 C         -48.909367     -132.209290      -43.230598
 C         -49.463852     -133.603500      -43.169743
 C         -48.721996     -131.582962      -41.934734
 C         -48.719955     -134.543045      -42.218533
 C         -47.829826     -132.495483      -40.989464
 C         -48.523251     -133.864594      -40.825291
 H         -49.407486     -134.106277      -44.093994
 H         -50.535938     -133.540649      -42.887489
 H         -48.186989     -130.663315      -42.013706
 H         -49.667549     -131.439789      -41.499702
 H         -47.689960     -134.783829      -42.534370
 H         -49.163593     -135.481735      -41.897785
 H         -47.790871     -131.872910      -40.146519
 H         -46.847137     -132.580536      -41.424877
 H         -47.935646     -134.600800      -40.156609
 H         -49.441895     -133.789185      -40.282120
