20
 generated by VMD
 C         -67.635284     -191.712128      -67.199211
 N         -66.936707     -192.549850      -66.729073
 H         -70.605148     -189.264175      -66.273422
 H         -68.399132     -191.183044      -67.732506
 C         -71.231339     -189.753723      -65.538353
 C         -71.680367     -191.188553      -65.783981
 C         -71.374283     -189.228409      -64.092155
 C         -73.210258     -191.173630      -65.335617
 C         -72.759712     -189.604614      -63.469872
 C         -73.230202     -190.996933      -63.874142
 H         -71.083046     -191.848419      -65.128975
 H         -71.639946     -191.456329      -66.830292
 H         -70.630104     -189.840195      -63.491943
 H         -71.193871     -188.122253      -64.151283
 H         -73.622658     -192.189682      -65.545929
 H         -73.861328     -190.591095      -65.983833
 H         -73.433334     -188.792267      -63.839859
 H         -72.796562     -189.344299      -62.414223
 H         -72.506851     -191.639923      -63.300259
 H         -74.398315     -191.070099      -63.722477
