20
 generated by VMD
 C          -1.740314      -16.765438        2.180004
 N          -1.543211      -17.498684        2.997278
 H          -5.161776      -16.722635        0.787062
 H          -4.894774      -17.857456       -0.505987
 C          -5.681158      -17.381866        0.071251
 C          -6.397252      -16.583580       -1.067427
 C          -6.598854      -18.379192        0.739540
 C          -7.099101      -17.459742       -2.065794
 C          -7.353163      -19.266848       -0.281808
 C          -8.093662      -18.431980       -1.338934
 H          -5.649384      -15.913354       -1.556321
 H          -7.113385      -15.919800       -0.580849
 H          -6.026028      -18.981457        1.414300
 H          -7.279115      -17.851212        1.343209
 H          -6.354047      -18.123499       -2.630637
 H          -7.685872      -16.824480       -2.796586
 H          -8.103045      -19.872070        0.275738
 H          -6.645942      -19.925611       -0.748025
 H          -8.438367      -19.112484       -2.108720
 H          -8.924459      -17.853516       -0.912310
