20
 generated by VMD
 C         -28.509228      -73.755348      -18.972137
 N         -29.526789      -73.887711      -18.387972
 H         -25.562511      -72.871338      -18.833576
 H         -27.473673      -73.643280      -19.476030
 C         -25.620644      -72.589516      -19.851900
 C         -24.988846      -73.663612      -20.725710
 C         -25.767054      -71.121681      -20.470692
 C         -25.516592      -73.674042      -22.098541
 C         -26.367887      -71.239975      -21.934988
 C         -25.402571      -72.220634      -22.661703
 H         -25.044407      -74.597672      -20.298145
 H         -23.877926      -73.614059      -20.787025
 H         -26.384462      -70.446465      -19.875315
 H         -24.759537      -70.576736      -20.551243
 H         -26.544085      -74.134308      -22.205490
 H         -24.857008      -74.304291      -22.766869
 H         -26.410950      -70.254501      -22.343946
 H         -27.323364      -71.713196      -21.851301
 H         -25.588223      -72.324226      -23.683811
 H         -24.424971      -71.708855      -22.530449
