20
 generated by VMD
 C         -39.549057     -116.556290      -34.949284
 N         -39.415787     -115.519096      -34.426907
 H         -41.325962     -115.438332      -37.519978
 H         -39.439396     -117.458282      -35.454708
 C         -42.371777     -115.799225      -37.627846
 C         -43.003826     -115.904999      -38.988949
 C         -43.299305     -115.822487      -36.431740
 C         -44.537556     -116.376945      -39.137405
 C         -44.655304     -116.537804      -36.617966
 C         -45.384663     -116.183418      -37.889111
 H         -42.336319     -116.368286      -39.732632
 H         -43.136356     -114.897003      -39.357368
 H         -42.693302     -115.967300      -35.546761
 H         -43.457645     -114.780434      -36.291630
 H         -44.541008     -117.431923      -39.412022
 H         -44.816444     -115.811516      -40.082802
 H         -45.328693     -116.366425      -35.783543
 H         -44.467644     -117.614380      -36.536812
 H         -46.351688     -116.971062      -38.084846
 H         -45.828770     -115.085976      -37.747005
