20
 generated by VMD
 C         -11.980850      -31.393801       -8.273449
 N         -12.011292      -30.649206       -7.455785
 H         -11.675497      -34.686840       -7.897650
 H         -12.912676      -34.033287       -6.787834
 C         -11.957201      -34.617691       -6.827830
 C         -10.823013      -33.854412       -6.194708
 C         -12.112911      -36.020466       -6.232111
 C         -11.233979      -33.733250       -4.709010
 C         -12.500298      -35.922100       -4.733090
 C         -11.485624      -35.031918       -3.952220
 H         -10.734296      -32.866066       -6.523887
 H          -9.811984      -34.287331       -6.347548
 H         -12.906704      -36.523361       -6.782656
 H         -11.177853      -36.568562       -6.426902
 H         -12.081112      -33.028973       -4.683422
 H         -10.417208      -33.275208       -4.166943
 H         -12.485141      -36.889301       -4.306837
 H         -13.589080      -35.507885       -4.643566
 H         -11.912745      -34.767506       -3.004067
 H         -10.583848      -35.599133       -3.721675
