20
 generated by VMD
 C         -13.153048      -28.138271       -3.849210
 N         -13.945939      -27.486574       -4.270284
 H         -10.407423      -28.934820       -2.513608
 H         -10.281346      -27.641310       -3.812180
 C          -9.788416      -28.499823       -3.286748
 C          -9.282300      -29.461042       -4.301386
 C          -8.594355      -28.037750       -2.401406
 C          -8.163967      -28.864420       -5.167408
 C          -7.514499      -27.393532       -3.273053
 C          -7.010388      -28.278551       -4.346536
 H         -10.035088      -29.813200       -5.001837
 H          -9.000909      -30.469103       -3.911295
 H          -8.961580      -27.282654       -1.667579
 H          -8.201245      -28.874464       -1.810138
 H          -8.519456      -28.176130       -5.934023
 H          -7.828124      -29.681524       -5.822378
 H          -6.666965      -27.172539       -2.656534
 H          -7.776960      -26.359016       -3.619898
 H          -6.382244      -27.639994       -5.053710
 H          -6.374679      -29.028748       -3.876217
