20
 generated by VMD
 C         -13.710191      -45.393757       -5.686158
 N         -14.341847      -45.083855       -6.537567
 H         -15.197598      -44.297447       -9.098152
 H         -14.433090      -44.012367      -10.702024
 C         -15.339261      -44.285786      -10.151097
 C         -16.445217      -43.263184      -10.463646
 C         -15.701900      -45.705662      -10.610443
 C         -16.995876      -43.284031      -11.902263
 C         -16.219448      -45.603516      -12.031693
 C         -17.397055      -44.697308      -12.371554
 H         -16.048115      -42.257347      -10.377672
 H         -17.188400      -43.440781       -9.649143
 H         -14.774262      -46.291149      -10.547065
 H         -16.482227      -46.059498       -9.967848
 H         -16.280527      -42.814423      -12.593323
 H         -17.912724      -42.683628      -11.944504
 H         -16.497704      -46.579544      -12.336926
 H         -15.376195      -45.333904      -12.725738
 H         -17.668379      -44.803387      -13.399745
 H         -18.243544      -44.958820      -11.777087
