20
 generated by VMD
 C         -52.648632     -146.522842      -44.371758
 N         -51.757915     -146.616440      -45.041801
 H         -53.975830     -145.990326      -47.077457
 H         -53.489098     -146.458618      -43.679848
 C         -53.946266     -145.187653      -47.858379
 C         -52.950882     -145.069901      -48.914185
 C         -54.850796     -144.004883      -47.513855
 C         -53.371925     -144.440018      -50.212017
 C         -55.365608     -143.305893      -48.852749
 C         -54.226269     -143.145370      -49.914963
 H         -52.506210     -146.023071      -49.184082
 H         -52.026150     -144.461075      -48.510048
 H         -55.646019     -144.460938      -46.873764
 H         -54.301277     -143.357193      -46.826004
 H         -53.943977     -145.125336      -50.995441
 H         -52.449028     -144.110626      -50.832191
 H         -55.858715     -142.298660      -48.686749
 H         -56.198128     -143.995483      -49.257061
 H         -54.709492     -142.774933      -50.888012
 H         -53.617443     -142.286682      -49.553181
