20
 generated by VMD
 C         -40.180138     -104.744530      -36.439362
 N         -39.437176     -104.164543      -37.136227
 H         -40.092926     -108.518906      -35.342163
 H         -40.888725     -105.453606      -35.961731
 C         -39.920425     -108.515900      -34.257725
 C         -38.807648     -107.622025      -33.743267
 C         -40.113205     -109.751640      -33.533211
 C         -38.870586     -107.355705      -32.212444
 C         -40.308342     -109.491318      -31.967762
 C         -39.111248     -108.584305      -31.439194
 H         -38.674522     -106.763435      -34.325726
 H         -37.928185     -108.157127      -33.903522
 H         -40.927963     -110.378113      -34.013634
 H         -39.183998     -110.340347      -33.564346
 H         -39.763317     -106.728378      -32.021454
 H         -38.000233     -106.832733      -31.706203
 H         -40.334999     -110.388977      -31.316031
 H         -41.152214     -108.822098      -31.930626
 H         -39.428951     -108.223419      -30.327278
 H         -38.175694     -109.191673      -31.429893
