20
 generated by VMD
 C         -30.961802      -75.781029      -22.546288
 N         -31.110226      -74.772179      -23.065145
 H         -28.617931      -78.528152      -21.540270
 H         -30.815546      -76.722237      -22.027941
 C         -27.825174      -77.823364      -21.598661
 C         -26.762655      -78.151146      -22.517979
 C         -27.630972      -76.751816      -20.577080
 C         -26.153746      -76.904846      -23.090925
 C         -26.830732      -75.623482      -21.137598
 C         -25.648285      -75.908554      -22.055979
 H         -27.212112      -78.709137      -23.410364
 H         -25.912783      -78.610870      -21.999533
 H         -28.596172      -76.516724      -20.040798
 H         -27.090357      -77.189980      -19.793432
 H         -26.867018      -76.496132      -23.828773
 H         -25.305790      -77.329597      -23.676149
 H         -26.447990      -74.995682      -20.355213
 H         -27.573006      -75.128731      -21.730148
 H         -25.250023      -74.967964      -22.401588
 H         -24.999645      -76.530968      -21.450203
