20
 generated by VMD
 C         -19.969643      -64.109161      -16.435137
 N         -19.945019      -63.173866      -17.144699
 H         -23.771467      -63.262341      -17.256565
 H         -19.879747      -64.837906      -15.687227
 C         -24.187132      -64.169823      -17.608700
 C         -24.511337      -64.345512      -19.066074
 C         -24.261068      -65.286972      -16.541782
 C         -24.652794      -65.716011      -19.545042
 C         -24.775099      -66.654739      -17.100147
 C         -25.493723      -66.385521      -18.407232
 H         -23.629562      -63.942047      -19.621819
 H         -25.500011      -63.912369      -19.312716
 H         -23.338331      -65.432861      -16.046120
 H         -25.031071      -64.905479      -15.854280
 H         -23.744801      -66.284630      -19.590202
 H         -25.150217      -65.848358      -20.509375
 H         -25.482834      -67.063782      -16.388742
 H         -23.917614      -67.326988      -17.260702
 H         -25.674046      -67.416748      -18.749685
 H         -26.505423      -66.014511      -18.344370
