20
 generated by VMD
 C         -40.671101     -119.140068      -35.296272
 N         -39.653069     -118.628265      -35.135181
 H         -43.918137     -117.115982      -36.113590
 H         -41.587795     -119.800171      -35.325600
 C         -44.044483     -117.141296      -37.168060
 C         -43.020527     -117.484070      -38.203888
 C         -45.305416     -116.445892      -37.562485
 C         -43.708359     -118.398186      -39.183865
 C         -45.948654     -117.218849      -38.763641
 C         -44.944199     -117.607101      -39.781452
 H         -42.221069     -117.891678      -37.591106
 H         -42.585648     -116.627762      -38.696445
 H         -46.013111     -116.494720      -36.790333
 H         -45.102627     -115.370399      -37.851509
 H         -44.230919     -119.268608      -38.713081
 H         -42.912323     -118.688408      -39.878510
 H         -46.676582     -116.459557      -39.064461
 H         -46.437504     -118.197975      -38.289757
 H         -45.399414     -118.251251      -40.479252
 H         -44.464993     -116.659172      -40.219116
