20
 generated by VMD
 C         -44.383553     -122.077904      -35.991951
 N         -43.905563     -120.977776      -35.929142
 H         -45.053310     -122.637634      -39.540874
 H         -44.904541     -122.988731      -35.903141
 C         -44.790600     -121.595589      -39.331478
 C         -43.392494     -121.110794      -39.599197
 C         -46.017258     -120.598267      -39.129940
 C         -43.275532     -119.719444      -40.144920
 C         -45.697979     -119.278458      -39.824142
 C         -44.369995     -118.788261      -39.495930
 H         -42.894653     -121.816650      -40.357452
 H         -42.762680     -121.199409      -38.661423
 H         -46.974987     -121.104477      -39.417782
 H         -46.134796     -120.452896      -38.070347
 H         -43.209873     -119.662476      -41.306793
 H         -42.293274     -119.395744      -39.895702
 H         -46.538765     -118.774330      -39.468884
 H         -45.915977     -119.315331      -40.871998
 H         -44.204487     -117.778931      -39.657295
 H         -44.290485     -118.882851      -38.442554
