20
 generated by VMD
 C         -70.746971     -181.774460      -64.040924
 N         -69.861107     -182.468170      -63.751816
 H         -68.782013     -180.951920      -61.361038
 H         -71.607216     -181.156555      -64.402214
 C         -67.682945     -180.731003      -61.105930
 C         -66.830132     -181.849442      -60.599777
 C         -67.354202     -179.368988      -60.669941
 C         -65.368248     -181.499207      -60.925312
 C         -65.808502     -179.043900      -60.728077
 C         -64.932014     -180.188614      -60.268826
 H         -67.140594     -182.810471      -61.186607
 H         -66.874481     -182.029541      -59.432194
 H         -67.920517     -178.683014      -61.195175
 H         -67.641441     -179.453125      -59.619576
 H         -65.136894     -181.416840      -61.993542
 H         -64.710793     -182.359283      -60.731178
 H         -65.685905     -178.205612      -60.035343
 H         -65.548294     -178.599579      -61.703953
 H         -63.913406     -180.010284      -60.729721
 H         -64.789581     -180.220657      -59.114323
