20
 generated by VMD
 C          -1.809276      -16.401684        2.263099
 N          -1.932906      -15.372087        2.667514
 H          -4.312441      -15.935658        0.171979
 H          -4.402116      -17.008286       -1.212171
 C          -5.010303      -16.633371       -0.327088
 C          -6.246926      -15.824953       -0.720992
 C          -5.302495      -17.745754        0.714429
 C          -7.422674      -16.669186       -1.074562
 C          -6.498128      -18.579977        0.280014
 C          -7.728085      -17.672665        0.021321
 H          -6.013721      -15.217175       -1.633855
 H          -6.460990      -15.070395        0.021626
 H          -4.461224      -18.348682        0.794952
 H          -5.315688      -17.355961        1.687113
 H          -7.159333      -17.138594       -2.060319
 H          -8.294359      -16.034613       -1.245924
 H          -6.795744      -19.307856        1.070386
 H          -6.270268      -19.128683       -0.626147
 H          -8.613544      -18.267771       -0.211874
 H          -7.902757      -17.067564        0.946499
