20
 generated by VMD
 C          -1.507041      -11.344563        1.573479
 N          -1.115150      -12.127083        0.922558
 H          -3.621507      -13.190585        0.263537
 H          -5.299650      -12.833244        0.606910
 C          -4.531518      -13.628174        0.815635
 C          -4.218808      -13.776122        2.320144
 C          -5.024814      -14.899366        0.187388
 C          -5.296033      -14.582829        3.074794
 C          -6.147352      -15.591214        0.891910
 C          -5.632684      -15.900544        2.324994
 H          -4.082621      -12.882554        2.858023
 H          -3.375514      -14.435984        2.444620
 H          -5.243619      -14.839391       -0.936906
 H          -4.097723      -15.554467        0.227296
 H          -6.199619      -14.043619        3.289984
 H          -4.925660      -14.880651        4.045913
 H          -6.387923      -16.510723        0.382026
 H          -7.053389      -14.958723        0.985536
 H          -6.444964      -16.379128        2.911025
 H          -4.785574      -16.639866        2.344356
