20
 generated by VMD
 C         -12.419202      -28.417124       -5.761314
 N         -13.310258      -27.762299       -5.831840
 H         -11.826193      -31.577456       -4.154013
 H         -11.283492      -30.105539       -4.826004
 C         -10.907227      -31.011578       -4.248808
 C          -9.817494      -31.700792       -5.041441
 C         -10.354441      -30.379993       -2.911758
 C          -8.519526      -30.924337       -5.239075
 C          -9.138255      -29.428165       -3.258010
 C          -8.012474      -30.180746       -4.011654
 H         -10.140316      -32.114105       -6.072282
 H          -9.515312      -32.564762       -4.501625
 H         -11.110650      -29.842505       -2.379407
 H         -10.005840      -31.188353       -2.284108
 H          -8.714353      -30.208977       -5.998513
 H          -7.734109      -31.593483       -5.581372
 H          -8.672637      -28.917921       -2.356202
 H          -9.501965      -28.624058       -3.856469
 H          -7.232910      -29.456501       -4.269297
 H          -7.595910      -30.953735       -3.331934
