20
 generated by VMD
 C         -23.386663      -54.041401      -14.891468
 N         -24.300049      -53.433979      -15.266106
 H         -19.996237      -54.771839      -15.476809
 H         -22.382040      -54.629566      -14.409853
 C         -19.317219      -55.155624      -14.853096
 C         -19.043200      -54.409996      -13.597205
 C         -19.022861      -56.622192      -14.936828
 C         -18.369034      -55.139397      -12.390609
 C         -18.005438      -57.097397      -13.906814
 C         -17.410526      -56.223068      -12.878608
 H         -20.005156      -53.957096      -13.206167
 H         -18.537889      -53.428337      -13.738315
 H         -19.958797      -57.116737      -14.721156
 H         -18.830891      -56.961308      -15.955321
 H         -19.109163      -55.624249      -11.713541
 H         -17.893950      -54.379833      -11.774290
 H         -17.237532      -57.627285      -14.422559
 H         -18.512632      -57.905472      -13.281627
 H         -17.054842      -56.809605      -12.031487
 H         -16.610386      -55.713654      -13.330690
