20
 generated by VMD
 C         -40.542072     -100.200966      -30.326612
 N         -41.335705     -100.513474      -29.516872
 H         -37.073456     -101.242493      -30.729145
 H         -39.737610     -100.047852      -30.956490
 C         -36.349781     -100.371277      -30.889780
 C         -36.234203     -100.022331      -32.313087
 C         -35.340103     -100.223671      -29.884829
 C         -35.280518      -98.914680      -32.403519
 C         -34.401020      -99.030716      -30.009573
 C         -33.999443      -98.921036      -31.506813
 H         -37.259762      -99.833870      -32.650600
 H         -35.859947     -100.946297      -32.808308
 H         -35.877762     -100.054832      -28.907240
 H         -34.820812     -101.217064      -29.838900
 H         -35.811741      -97.978439      -32.091335
 H         -34.862701      -98.758644      -33.454689
 H         -33.430573      -99.299675      -29.454796
 H         -34.792591      -98.089928      -29.727514
 H         -33.521240      -98.032669      -31.754959
 H         -33.314835      -99.791397      -31.709919
