20
 generated by VMD
 C          -1.752056      -14.003738        2.351068
 N          -1.833024      -14.271292        1.265676
 H          -3.827248      -16.893784        1.244372
 H          -4.094775      -17.110394       -0.464364
 C          -4.640974      -16.969330        0.475438
 C          -5.439942      -15.636073        0.529667
 C          -5.463386      -18.194660        0.866727
 C          -6.759012      -15.815123       -0.277914
 C          -6.777432      -18.279432        0.065375
 C          -7.605690      -16.937006        0.213495
 H          -4.929338      -14.890539       -0.062602
 H          -5.619405      -15.237703        1.573406
 H          -4.855117      -19.124300        0.645031
 H          -5.688064      -18.244869        2.027852
 H          -6.420640      -16.006111       -1.271977
 H          -7.267821      -14.842797       -0.216374
 H          -7.339965      -19.103754        0.384479
 H          -6.579719      -18.392765       -1.000148
 H          -8.574495      -17.003437       -0.307050
 H          -7.788753      -16.887310        1.279598
