20
 generated by VMD
 C         -12.680462      -30.155996       -8.272573
 N         -13.388591      -30.740759       -7.644907
 H         -10.934431      -30.515495       -5.105606
 H         -10.757004      -31.178068       -3.549156
 C         -10.802403      -31.418081       -4.633870
 C          -9.541407      -32.031235       -5.113258
 C         -11.962392      -32.484314       -4.789092
 C          -9.152724      -33.331440       -4.499828
 C         -11.622884      -33.832886       -4.121123
 C         -10.292302      -34.361992       -4.530852
 H          -8.720511      -31.246288       -4.908191
 H          -9.690797      -32.163765       -6.154480
 H         -12.890328      -32.040249       -4.402363
 H         -12.030786      -32.702431       -5.862366
 H          -8.883970      -33.085773       -3.437453
 H          -8.244775      -33.751461       -5.034339
 H         -12.339035      -34.609715       -4.293402
 H         -11.551093      -33.578930       -2.996330
 H         -10.031201      -35.118702       -3.840855
 H         -10.340242      -34.734123       -5.566202
