20
 generated by VMD
 C         -28.104231      -86.491302      -26.914219
 N         -27.815363      -85.532234      -26.313732
 H         -31.125687      -85.392494      -25.560307
 H         -28.374853      -87.262115      -27.521761
 C         -31.890083      -86.196457      -25.574903
 C         -32.557537      -86.861206      -24.347178
 C         -32.058392      -87.014580      -26.934513
 C         -34.019493      -87.242233      -24.769245
 C         -33.392048      -87.572609      -27.173090
 C         -34.146030      -88.210594      -26.027216
 H         -32.711384      -86.203506      -23.523579
 H         -31.875500      -87.604248      -23.919865
 H         -31.741068      -86.348549      -27.728786
 H         -31.231516      -87.756584      -26.867151
 H         -34.556599      -86.312195      -25.070139
 H         -34.625072      -87.781700      -23.994053
 H         -33.296005      -88.401337      -27.934807
 H         -33.953999      -86.816895      -27.612627
 H         -35.167179      -88.350105      -26.166393
 H         -33.714157      -89.172272      -25.870909
