20
 generated by VMD
 C         -60.266296     -156.341644      -55.959404
 N         -60.790432     -155.351074      -55.827011
 H         -59.701576     -158.019882      -53.017448
 H         -59.762478     -157.265045      -56.242634
 C         -58.793812     -157.936493      -52.449242
 C         -57.990765     -156.723999      -52.446003
 C         -58.269768     -159.131653      -51.924511
 C         -57.281178     -156.427490      -51.076687
 C         -57.511826     -158.950562      -50.651630
 C         -56.554493     -157.705322      -50.699005
 H         -58.365005     -155.793137      -52.765495
 H         -57.261230     -156.747253      -53.283207
 H         -58.984486     -159.874039      -51.783348
 H         -57.618492     -159.542603      -52.722713
 H         -57.933529     -156.078690      -50.245258
 H         -56.569416     -155.683456      -51.358280
 H         -56.993889     -159.823578      -50.475964
 H         -58.118565     -158.610336      -49.887386
 H         -56.200851     -157.614655      -49.623711
 H         -55.805496     -157.932281      -51.453362
