20
 generated by VMD
 C         -32.267338      -94.906113      -25.498203
 N         -33.325512      -95.018066      -25.072603
 H         -33.916016      -94.861168      -28.151484
 H         -31.160784      -95.016167      -25.810560
 C         -34.285625      -93.948410      -28.721304
 C         -35.769829      -93.626816      -28.696566
 C         -33.350422      -93.499977      -29.803791
 C         -35.917583      -92.128792      -29.021976
 C         -33.623501      -92.012360      -30.187016
 C         -35.120598      -91.766655      -30.271769
 H         -36.093201      -93.808907      -27.618065
 H         -36.334110      -94.236404      -29.390867
 H         -32.312401      -93.583801      -29.484303
 H         -33.535172      -94.067207      -30.728100
 H         -35.680214      -91.375481      -28.272938
 H         -36.948097      -92.033440      -29.262072
 H         -33.108898      -91.749886      -31.156948
 H         -33.217384      -91.456100      -29.378809
 H         -35.249226      -90.709579      -30.431099
 H         -35.426891      -92.274734      -31.281752
