20
 generated by VMD
 C         -22.357029      -53.063076      -12.497510
 N         -22.863916      -52.495304      -13.320852
 H         -20.181126      -54.274223      -14.661649
 H         -21.845638      -53.388882      -11.534210
 C         -19.417959      -54.018513      -13.960372
 C         -18.974907      -52.656605      -13.662718
 C         -18.510717      -55.129246      -13.487705
 C         -17.521025      -52.357536      -13.908128
 C         -17.272152      -54.601299      -12.708027
 C         -16.551800      -53.506454      -13.568996
 H         -19.176105      -52.410828      -12.600388
 H         -19.694466      -51.896996      -14.171723
 H         -19.067162      -55.872612      -12.809896
 H         -18.153154      -55.709869      -14.330375
 H         -17.259329      -51.479111      -13.300554
 H         -17.420624      -52.052193      -14.974825
 H         -16.547424      -55.500843      -12.686538
 H         -17.492104      -54.331348      -11.698447
 H         -15.620481      -53.240108      -13.058590
 H         -16.210333      -53.947418      -14.480973
