20
 generated by VMD
 C         -68.367905     -194.301315      -66.422157
 N         -67.695168     -194.090897      -65.489555
 H         -70.303741     -191.083603      -66.612091
 H         -68.719719     -194.452179      -67.456909
 C         -71.272766     -191.055771      -66.071754
 C         -72.391136     -190.214462      -66.577721
 C         -71.455956     -191.989807      -64.900360
 C         -73.848618     -190.907272      -66.476280
 C         -72.906822     -191.851425      -64.304100
 C         -73.963348     -191.992065      -65.426437
 H         -72.134865     -190.026077      -67.615173
 H         -72.501808     -189.193146      -66.084496
 H         -71.349014     -192.950241      -65.274712
 H         -70.586563     -191.787476      -64.274704
 H         -74.166870     -191.195969      -67.490639
 H         -74.611786     -190.115356      -66.314629
 H         -73.043762     -190.809830      -63.946140
 H         -72.999329     -192.574539      -63.522114
 H         -73.827080     -192.981796      -66.068123
 H         -74.902863     -191.928772      -64.996048
