20
 generated by VMD
 C         -68.261444     -179.729340      -58.955433
 N         -68.167381     -179.963943      -60.093544
 H         -67.547539     -176.757294      -59.664360
 H         -68.418526     -179.452942      -57.903511
 C         -66.439568     -176.827072      -60.035347
 C         -66.076164     -176.384720      -61.434784
 C         -65.268860     -177.203354      -59.210293
 C         -65.032982     -175.257416      -61.350494
 C         -64.191978     -176.124908      -59.083584
 C         -63.845219     -175.655945      -60.488590
 H         -66.936790     -175.965271      -62.055328
 H         -65.757271     -177.283890      -61.942585
 H         -65.479225     -177.215729      -58.098709
 H         -64.781845     -178.127457      -59.358776
 H         -65.554955     -174.386932      -60.987526
 H         -64.704254     -175.016281      -62.333679
 H         -63.329391     -176.670105      -58.633316
 H         -64.502098     -175.273468      -58.429737
 H         -63.155689     -174.767303      -60.468510
 H         -63.243263     -176.456726      -60.961777
