20
 generated by VMD
 C         -30.372105      -74.744858      -21.115808
 N         -31.138235      -75.455826      -20.634592
 H         -27.438993      -74.744080      -19.420454
 H         -29.570368      -73.998451      -21.176670
 C         -26.818155      -74.649811      -20.280148
 C         -26.553698      -75.863022      -21.287319
 C         -25.976086      -73.422256      -20.452179
 C         -26.051367      -75.361679      -22.691553
 C         -25.546591      -73.160301      -21.891680
 C         -24.896002      -74.311546      -22.491360
 H         -27.614277      -76.232185      -21.494314
 H         -25.790468      -76.524666      -20.860868
 H         -26.597929      -72.525970      -20.091856
 H         -25.068882      -73.487587      -19.667156
 H         -26.874950      -75.000153      -23.295292
 H         -25.594208      -76.156593      -23.248768
 H         -24.729933      -72.428993      -21.814137
 H         -26.377813      -72.648842      -22.384535
 H         -24.279831      -74.086082      -23.385281
 H         -24.102585      -74.627312      -21.773586
