20
 generated by VMD
 C          -2.781610       -9.076228        0.098727
 N          -1.648570       -9.242544        0.084742
 H          -2.166577      -11.772466        2.614307
 H          -2.999991      -12.233974        4.111081
 C          -2.965378      -12.464677        3.052706
 C          -2.711112      -13.917418        2.726366
 C          -4.304356      -11.929058        2.558574
 C          -3.859196      -14.846773        3.030269
 C          -5.459013      -12.943695        2.873819
 C          -5.090807      -14.331368        2.359374
 H          -1.797937      -14.161570        3.207667
 H          -2.461578      -13.879926        1.639180
 H          -4.515193      -10.881063        2.918972
 H          -4.237757      -11.957714        1.400703
 H          -3.974521      -15.011529        4.141657
 H          -3.585608      -15.837042        2.596711
 H          -6.307961      -12.643746        2.330859
 H          -5.738584      -13.010971        3.902872
 H          -5.848131      -15.093557        2.555914
 H          -4.920807      -14.276252        1.265507
