20
 generated by VMD
 C         -11.992090      -42.703655       -7.133979
 N         -12.419617      -42.142620       -6.288771
 H         -14.873052      -43.765484       -8.260283
 H         -14.699418      -42.227058       -9.155167
 C         -15.159239      -43.190231       -9.098333
 C         -16.688061      -43.011131       -9.044114
 C         -14.828400      -44.007748      -10.312375
 C         -17.366377      -42.494926      -10.333349
 C         -15.634646      -43.677284      -11.664034
 C         -17.163570      -43.405689      -11.489478
 H         -16.928982      -42.374233       -8.209116
 H         -17.193024      -43.951878       -8.735982
 H         -13.798979      -44.047859      -10.534014
 H         -15.036147      -45.029640      -10.035832
 H         -17.032141      -41.456417      -10.507632
 H         -18.441898      -42.428379      -10.127869
 H         -15.588109      -44.536671      -12.293284
 H         -15.061413      -42.796310      -12.108253
 H         -17.568752      -43.080582      -12.434382
 H         -17.629887      -44.361568      -11.147804
