20
 generated by VMD
 C         -21.215225      -52.219467       -9.746066
 N         -21.394106      -52.727047      -10.739843
 H         -19.568624      -50.272297      -12.146115
 H         -20.795099      -51.583469       -8.691790
 C         -18.565596      -50.169765      -12.614311
 C         -18.004976      -51.553741      -12.977715
 C         -17.545055      -49.194729      -12.237478
 C         -16.846451      -51.477188      -14.023151
 C         -16.340578      -49.212158      -13.258865
 C         -15.709880      -50.594738      -13.578351
 H         -18.858171      -52.114433      -13.352275
 H         -17.555843      -52.030155      -12.074922
 H         -17.976833      -48.220097      -12.032828
 H         -17.158770      -49.458057      -11.217459
 H         -17.150547      -51.231216      -15.067988
 H         -16.347570      -52.432816      -14.153901
 H         -15.635027      -48.628139      -12.772930
 H         -16.589689      -48.773891      -14.249851
 H         -14.970954      -50.491066      -14.403760
 H         -15.184770      -50.984959      -12.648048
