20
 generated by VMD
 C         -38.439159     -109.752686      -36.322464
 N         -37.732132     -108.995407      -35.837086
 H         -41.608913     -110.721519      -37.127777
 H         -39.250881     -110.384575      -36.644718
 C         -41.680946     -111.260536      -36.188686
 C         -42.110321     -112.673454      -36.186245
 C         -42.286018     -110.461983      -35.075035
 C         -41.524109     -113.403908      -34.906013
 C         -41.805038     -111.108833      -33.708809
 C         -42.170692     -112.644653      -33.704922
 H         -41.851665     -113.113014      -37.128288
 H         -43.169876     -112.712852      -36.027843
 H         -42.301521     -109.345734      -35.229279
 H         -43.365345     -110.737686      -35.177990
 H         -40.476112     -113.401932      -34.767773
 H         -41.815617     -114.558693      -34.895138
 H         -42.345825     -110.525902      -32.909271
 H         -40.679462     -110.936287      -33.494045
 H         -41.954884     -113.141457      -32.697853
 H         -43.211414     -112.808754      -33.890785
