20
 generated by VMD
 C         -78.275681     -204.266144      -69.306671
 N         -79.081436     -203.855896      -69.998909
 H         -75.509216     -202.322922      -67.448723
 H         -77.518547     -204.671066      -68.707047
 C         -75.185349     -202.120132      -68.467232
 C         -75.409256     -200.767227      -69.073067
 C         -74.113686     -203.056732      -69.129639
 C         -74.895676     -200.780365      -70.470726
 C         -73.021812     -202.144257      -69.511169
 C         -73.388382     -201.179321      -70.568726
 H         -74.847427     -199.957901      -68.527466
 H         -76.433815     -200.520737      -69.086197
 H         -73.723228     -203.729492      -68.381920
 H         -74.447624     -203.502930      -70.054314
 H         -75.072144     -199.865631      -71.058189
 H         -75.530144     -201.482162      -71.081787
 H         -72.128914     -202.821243      -69.699921
 H         -72.668694     -201.481155      -68.707603
 H         -72.733131     -200.210754      -70.385193
 H         -73.137856     -201.550842      -71.647621
