20
 generated by VMD
 C         -68.301239     -185.190765      -67.415558
 N         -67.617752     -186.006927      -66.949776
 H         -69.791039     -185.181427      -64.503868
 H         -68.945648     -184.514801      -67.983612
 C         -69.671112     -185.513733      -63.529613
 C         -70.741203     -185.158707      -62.560528
 C         -68.654137     -186.523392      -63.219463
 C         -70.479408     -185.376556      -61.093380
 C         -68.354057     -186.517181      -61.717384
 C         -69.588821     -186.666824      -60.870853
 H         -71.661804     -185.707031      -62.669491
 H         -71.078278     -184.090195      -62.606636
 H         -68.964272     -187.527176      -63.520798
 H         -67.814461     -186.200363      -63.932114
 H         -71.422501     -185.366531      -60.506668
 H         -69.915215     -184.541687      -60.553535
 H         -67.891243     -185.520020      -61.438961
 H         -67.671089     -187.341675      -61.441792
 H         -70.261719     -187.425858      -61.293762
 H         -69.349464     -186.611069      -59.837685
