20
 generated by VMD
 C         -27.693445      -84.566887      -26.149422
 N         -28.254930      -84.991188      -27.053980
 H         -31.341595      -84.591934      -26.106342
 H         -27.173759      -84.200882      -25.308397
 C         -31.801529      -85.588127      -25.779959
 C         -31.905027      -85.865990      -24.379354
 C         -32.057026      -86.591545      -26.797045
 C         -33.213665      -86.520203      -24.137293
 C         -33.385017      -87.361671      -26.579897
 C         -33.459869      -87.725815      -25.063683
 H         -31.829306      -85.003876      -23.774790
 H         -31.134211      -86.516586      -23.910061
 H         -32.131786      -85.889305      -27.648643
 H         -31.188568      -87.132698      -26.921486
 H         -34.110401      -85.798424      -24.246332
 H         -33.419765      -86.808578      -23.040468
 H         -33.534271      -88.276413      -27.280130
 H         -34.241463      -86.661827      -26.788849
 H         -34.453228      -88.202713      -24.945833
 H         -32.574123      -88.504173      -24.808699
