20
 generated by VMD
 C         -38.733681      -99.097710      -27.104437
 N         -37.755016      -99.160271      -26.467287
 H         -37.101608      -97.429741      -30.006754
 H         -39.691261      -99.129379      -27.538090
 C         -36.187172      -97.001694      -30.470453
 C         -35.483994      -97.474945      -31.716690
 C         -35.298389      -96.165863      -29.500624
 C         -34.357166      -96.605766      -32.240147
 C         -34.189102      -95.376068      -30.115593
 C         -33.364326      -96.273865      -31.173302
 H         -36.190952      -97.573364      -32.528206
 H         -35.203407      -98.585869      -31.505144
 H         -35.986073      -95.539810      -28.937851
 H         -34.807259      -96.875328      -28.762798
 H         -34.805107      -95.676117      -32.641994
 H         -33.795624      -97.234680      -33.002163
 H         -33.435650      -94.882233      -29.425470
 H         -34.595150      -94.569061      -30.717159
 H         -32.500717      -95.626091      -31.458817
 H         -33.028835      -97.254227      -30.771400
