20
 generated by VMD
 C         -70.599220     -181.297394      -64.072350
 N         -70.642616     -182.277817      -63.412861
 H         -68.403496     -181.276978      -61.128963
 H         -70.551628     -180.360886      -64.568184
 C         -67.367950     -180.892166      -60.896702
 C         -66.141075     -181.579788      -60.385601
 C         -67.358070     -179.415344      -60.522182
 C         -64.894417     -180.933685      -60.837803
 C         -65.997803     -178.722610      -60.773876
 C         -64.662140     -179.436768      -60.277672
 H         -66.224747     -182.720444      -60.598427
 H         -66.220139     -181.520157      -59.252728
 H         -68.175858     -178.870712      -61.088337
 H         -67.657860     -179.304367      -59.453716
 H         -65.024323     -181.028427      -61.884163
 H         -64.123528     -181.553467      -60.404728
 H         -66.084396     -177.698669      -60.328308
 H         -65.886238     -178.512497      -61.833675
 H         -63.691765     -179.082626      -60.754246
 H         -64.590935     -179.388382      -59.212536
