20
 generated by VMD
 C         -73.949196     -201.092697      -65.377510
 N         -72.801254     -201.106888      -65.428825
 H         -74.116951     -198.072296      -66.668480
 H         -75.042145     -201.291092      -65.439270
 C         -74.252403     -197.535736      -67.583321
 C         -74.576172     -196.098450      -67.712296
 C         -73.561028     -198.258240      -68.665932
 C         -73.488594     -195.355408      -68.432541
 C         -73.816002     -197.484375      -70.004143
 C         -73.276825     -195.973251      -69.822800
 H         -74.719925     -195.822556      -66.687286
 H         -75.619324     -195.950623      -68.209564
 H         -72.549316     -198.596512      -68.560394
 H         -74.022758     -199.268433      -68.672218
 H         -72.539886     -195.445404      -67.899292
 H         -73.711830     -194.275421      -68.449371
 H         -74.876915     -197.398926      -70.308456
 H         -73.171288     -198.011505      -70.821465
 H         -72.258675     -195.879074      -70.182343
 H         -73.865730     -195.415085      -70.610008
