20
 generated by VMD
 C         -56.228512     -150.098083      -46.792839
 N         -57.026798     -150.439392      -46.022945
 H         -53.671043     -148.055130      -47.600979
 H         -55.604618     -149.732483      -47.566833
 C         -53.770054     -147.534866      -48.501720
 C         -53.085762     -147.938126      -49.722630
 C         -54.436157     -146.151276      -48.646900
 C         -53.823948     -147.724838      -51.105476
 C         -55.460506     -146.128555      -49.776592
 C         -54.587688     -146.357666      -51.167213
 H         -52.611847     -148.978622      -49.627666
 H         -52.205154     -147.410110      -49.857323
 H         -54.819298     -145.847778      -47.662048
 H         -53.624432     -145.472687      -48.680637
 H         -54.670425     -148.484299      -51.073959
 H         -53.211807     -148.004364      -51.988239
 H         -56.024513     -145.240112      -49.694054
 H         -56.239471     -147.009583      -49.701366
 H         -55.285301     -146.302399      -52.026436
 H         -53.944489     -145.525024      -51.366974
