20
 generated by VMD
 C         -40.463360     -117.450333      -34.539669
 N         -39.466183     -116.989563      -34.935257
 H         -41.860146     -116.259323      -37.221481
 H         -41.371647     -117.905731      -34.182240
 C         -42.817142     -116.482262      -37.606655
 C         -42.928249     -116.500954      -39.148613
 C         -44.016113     -116.284096      -36.673367
 C         -44.192219     -117.289528      -39.486649
 C         -45.211838     -116.948898      -37.196060
 C         -45.353951     -116.657005      -38.724152
 H         -42.093433     -116.966736      -39.666595
 H         -43.059971     -115.460335      -39.390282
 H         -43.616375     -116.567543      -35.659988
 H         -44.102058     -115.232063      -36.464058
 H         -43.988609     -118.355850      -39.241703
 H         -44.298592     -117.157806      -40.607574
 H         -46.104355     -116.550529      -36.623810
 H         -45.336655     -118.029716      -36.951241
 H         -46.240532     -117.114632      -39.078007
 H         -45.279240     -115.557350      -39.044956
