20
 generated by VMD
 C         -60.268005     -156.119720      -56.195332
 N         -60.696262     -155.124817      -55.665997
 H         -59.812145     -157.998993      -52.824505
 H         -59.852219     -157.039551      -56.601730
 C         -58.975353     -157.797012      -52.079208
 C         -58.258492     -156.546982      -52.217262
 C         -58.152298     -159.020737      -51.687206
 C         -57.208229     -156.310318      -51.130955
 C         -57.074230     -158.717346      -50.545879
 C         -56.265751     -157.393997      -50.910812
 H         -58.982101     -155.696945      -52.306534
 H         -57.772339     -156.387589      -53.158257
 H         -58.839859     -159.835403      -51.283062
 H         -57.637173     -159.505859      -52.522392
 H         -57.772198     -156.074203      -50.314865
 H         -56.538670     -155.448624      -51.254078
 H         -56.259632     -159.407913      -50.408009
 H         -57.609211     -158.600754      -49.682198
 H         -55.547546     -157.155807      -50.194160
 H         -55.603977     -157.578598      -51.847919
