20
 generated by VMD
 C         -19.403296      -60.797657      -17.616812
 N         -20.164387      -59.894005      -17.749765
 H         -22.551167      -60.169632      -15.894537
 H         -18.944998      -61.701191      -17.546877
 C         -23.022892      -61.135674      -16.117268
 C         -23.190809      -61.754387      -17.505695
 C         -23.722925      -61.843704      -15.061838
 C         -22.902487      -63.265556      -17.609270
 C         -23.132818      -63.236664      -15.008740
 C         -23.260868      -64.024803      -16.271353
 H         -22.628597      -61.161572      -18.204491
 H         -24.275755      -61.707405      -17.728354
 H         -23.619942      -61.372463      -14.174303
 H         -24.786251      -61.954041      -15.260252
 H         -21.904886      -63.647129      -17.923286
 H         -23.650303      -63.666531      -18.353889
 H         -23.604898      -63.792057      -14.158717
 H         -22.089260      -63.162281      -14.587479
 H         -22.831167      -65.000153      -16.237595
 H         -24.324928      -64.256599      -16.446358
