20
 generated by VMD
 C         -38.479664     -115.271614      -35.420769
 N         -39.265709     -115.320419      -34.596710
 H         -41.409653     -115.336281      -36.789497
 H         -37.903957     -115.425781      -36.380283
 C         -42.473919     -115.571465      -37.132870
 C         -42.874016     -115.429459      -38.604401
 C         -43.484097     -115.299690      -36.057411
 C         -44.214725     -116.064407      -38.800213
 C         -44.720345     -116.104073      -36.309429
 C         -45.267735     -115.799477      -37.673222
 H         -42.145222     -115.796341      -39.319839
 H         -42.895515     -114.345833      -38.887169
 H         -42.982365     -115.588814      -35.120289
 H         -43.755463     -114.258774      -35.991463
 H         -44.120140     -117.122299      -38.931473
 H         -44.509521     -115.679657      -39.833996
 H         -45.385632     -115.777931      -35.583832
 H         -44.520718     -117.146187      -36.154629
 H         -46.111633     -116.492271      -38.066013
 H         -45.527611     -114.786263      -37.862465
