20
 generated by VMD
 C         -10.415838      -33.396492       -8.980669
 N         -11.143916      -32.605831       -9.242361
 H         -11.865701      -36.833160       -8.107342
 H         -12.114452      -36.094898       -6.490479
 C         -12.446810      -36.951996       -7.155677
 C         -11.993852      -38.207607       -6.463179
 C         -13.930050      -36.933624       -7.516458
 C         -12.770246      -38.361141       -5.157036
 C         -14.743732      -37.174679       -6.258544
 C         -14.246391      -38.484268       -5.505689
 H         -10.937850      -38.182922       -6.209817
 H         -12.143923      -39.101437       -7.027969
 H         -14.119880      -35.983425       -7.983348
 H         -14.114322      -37.643604       -8.361560
 H         -12.470341      -37.574528       -4.513060
 H         -12.541069      -39.316063       -4.726812
 H         -15.775187      -37.299805       -6.489417
 H         -14.705609      -36.289085       -5.491863
 H         -14.845495      -38.487263       -4.554622
 H         -14.480848      -39.409824       -6.048199
