20
 generated by VMD
 C         -74.980064     -201.761368      -66.610214
 N         -74.812569     -201.477112      -65.475143
 H         -76.343445     -199.043579      -68.953552
 H         -74.896118     -201.942703      -67.681671
 C         -75.254776     -198.870972      -69.002678
 C         -74.986603     -197.512085      -68.321960
 C         -74.254555     -199.529541      -69.886406
 C         -73.518059     -197.545319      -67.933426
 C         -73.281532     -198.449707      -70.388306
 C         -72.582153     -197.746170      -69.218773
 H         -75.642487     -197.313293      -67.505142
 H         -75.060326     -196.792450      -69.056961
 H         -73.766785     -200.329697      -69.336990
 H         -74.720360     -200.111267      -70.717705
 H         -73.260323     -198.331940      -67.274208
 H         -73.077057     -196.698364      -67.359695
 H         -73.768456     -197.695374      -70.959908
 H         -72.571533     -198.945419      -71.011871
 H         -71.738968     -198.257233      -68.952644
 H         -72.229561     -196.769608      -69.782822
