20
 generated by VMD
 C         -50.946144     -130.832169      -46.040134
 N         -50.454323     -130.108170      -46.713470
 H         -47.877705     -132.299637      -44.480671
 H         -51.701870     -131.531555      -45.703621
 C         -48.164139     -132.361282      -43.468998
 C         -48.465183     -133.667740      -42.918182
 C         -48.157139     -131.178680      -42.541367
 C         -48.214729     -133.948608      -41.460346
 C         -47.872761     -131.528625      -41.076118
 C         -48.593334     -132.751358      -40.550575
 H         -47.952728     -134.343201      -43.617443
 H         -49.564106     -133.677597      -43.079533
 H         -47.348774     -130.509354      -42.763920
 H         -49.084316     -130.568802      -42.410233
 H         -47.152241     -134.202927      -41.434074
 H         -48.738213     -134.887466      -41.240795
 H         -48.032841     -130.613251      -40.336071
 H         -46.782242     -131.641861      -41.018059
 H         -48.320854     -133.118729      -39.553200
 H         -49.696125     -132.697250      -40.786263
