20
 generated by VMD
 C         -50.437958     -129.439087      -43.189041
 N         -50.472507     -128.276199      -43.170464
 H         -48.727242     -127.996826      -40.022911
 H         -50.623455     -130.481094      -42.980911
 C         -47.654087     -127.837082      -40.242176
 C         -46.489845     -128.782333      -39.950947
 C         -47.284290     -126.573051      -40.949764
 C         -45.405575     -128.786377      -41.000679
 C         -46.133457     -126.759682      -42.038746
 C         -44.941933     -127.623444      -41.729656
 H         -46.748848     -129.806061      -39.781227
 H         -46.026787     -128.301208      -39.016460
 H         -48.160606     -126.204292      -41.358807
 H         -46.774837     -125.911667      -40.136623
 H         -45.649384     -129.602249      -41.776546
 H         -44.522717     -129.426010      -40.668598
 H         -45.727005     -125.772026      -42.338772
 H         -46.605614     -127.043098      -42.984547
 H         -44.506695     -127.819778      -42.753952
 H         -44.166862     -127.036209      -41.152283
