20
 generated by VMD
 C         -38.641350     -111.646194      -35.964695
 N         -38.448906     -111.067329      -36.939896
 H         -40.557011     -114.809692      -35.100101
 H         -38.661488     -112.396927      -35.154774
 C         -41.508224     -114.319931      -35.306126
 C         -41.810024     -114.451813      -36.744194
 C         -42.231487     -113.405556      -34.367260
 C         -43.284821     -114.319374      -37.009388
 C         -43.662933     -113.173912      -34.876869
 C         -43.966751     -113.144478      -36.302116
 H         -41.474861     -115.480476      -37.168076
 H         -41.223976     -113.599228      -37.197899
 H         -42.238186     -113.726059      -33.307220
 H         -41.583141     -112.518890      -34.349602
 H         -43.795124     -115.291656      -36.646000
 H         -43.604141     -114.222748      -38.046646
 H         -43.762592     -112.183823      -34.539410
 H         -44.202705     -114.022606      -34.489468
 H         -44.974796     -113.147095      -36.532383
 H         -43.556122     -112.321884      -36.905781
