20
 generated by VMD
 C         -11.885868      -42.580242       -7.140543
 N         -12.353312      -42.166294       -6.231666
 H         -14.743950      -43.416401       -8.216541
 H         -14.782706      -42.090157       -9.378168
 C         -15.221180      -43.106216       -9.139042
 C         -16.715422      -43.002560       -9.010484
 C         -14.890410      -44.011116      -10.355989
 C         -17.423965      -42.475723      -10.270925
 C         -15.609954      -43.690533      -11.607616
 C         -17.072266      -43.395939      -11.463454
 H         -16.927282      -42.297916       -8.208652
 H         -17.065039      -43.962570       -8.750472
 H         -13.792789      -43.787704      -10.530496
 H         -15.129134      -45.045811      -10.080336
 H         -17.034529      -41.480095      -10.516397
 H         -18.515194      -42.471775      -10.144482
 H         -15.414757      -44.503632      -12.291170
 H         -15.186837      -42.845184      -12.163727
 H         -17.463287      -42.855881      -12.374702
 H         -17.620949      -44.369957      -11.477709
