20
 generated by VMD
 C         -77.336777     -203.314148      -67.615250
 N         -77.939453     -204.311020      -67.381378
 H         -75.073944     -201.024643      -67.546051
 H         -76.795952     -202.392212      -67.974869
 C         -74.667999     -200.612579      -68.472717
 C         -74.984169     -199.141586      -68.647644
 C         -73.853584     -201.479065      -69.441826
 C         -73.995361     -198.400131      -69.521919
 C         -72.859795     -200.595352      -70.362755
 C         -73.452065     -199.306610      -70.767654
 H         -74.990112     -198.609283      -67.664268
 H         -75.961906     -199.104004      -69.045372
 H         -73.231010     -202.283936      -68.937828
 H         -74.494110     -202.008224      -70.203682
 H         -73.105118     -198.133011      -68.912903
 H         -74.489670     -197.479172      -69.946861
 H         -72.707451     -201.137177      -71.258224
 H         -71.937477     -200.560608      -69.925049
 H         -72.704819     -198.667343      -71.320343
 H         -74.249352     -199.439987      -71.405991
