20
 generated by VMD
 C         -15.542429      -47.630219       -6.318779
 N         -15.663994      -46.609978       -5.911808
 H         -16.495255      -47.453377       -9.950056
 H         -15.166074      -47.194168      -11.020812
 C         -16.269762      -46.914207      -10.901746
 C         -16.485285      -45.355843      -10.780658
 C         -17.127144      -47.399815      -12.055024
 C         -16.114925      -44.584141      -12.102964
 C         -16.964447      -46.662518      -13.387839
 C         -17.034723      -45.152145      -13.193596
 H         -15.839614      -44.978985      -10.005718
 H         -17.505287      -45.130436      -10.501321
 H         -16.979008      -48.435478      -12.256418
 H         -18.165724      -47.221806      -11.749866
 H         -15.054460      -44.723316      -12.349314
 H         -16.359262      -43.527367      -11.934695
 H         -17.664709      -47.107887      -14.078261
 H         -15.917370      -46.861435      -13.812886
 H         -16.754229      -44.596909      -14.072977
 H         -18.080305      -44.898335      -12.896452
