20
 generated by VMD
 C         -74.956322     -201.793274      -66.579399
 N         -74.721672     -201.410919      -65.499115
 H         -76.313927     -199.191803      -69.140373
 H         -75.083679     -202.138763      -67.558418
 C         -75.333641     -198.788086      -68.940872
 C         -74.979271     -197.473129      -68.309547
 C         -74.208977     -199.472443      -69.860291
 C         -73.499489     -197.495483      -67.968712
 C         -73.261635     -198.446213      -70.442162
 C         -72.591995     -197.814514      -69.192802
 H         -75.556084     -197.312805      -67.377617
 H         -75.253838     -196.720215      -68.926453
 H         -73.615021     -200.179489      -69.269608
 H         -74.714859     -199.951340      -70.687279
 H         -73.388123     -198.183731      -67.157623
 H         -73.396637     -196.447220      -67.623566
 H         -73.846878     -197.755081      -70.990707
 H         -72.528358     -198.785004      -71.185898
 H         -71.861656     -198.489456      -68.851807
 H         -72.048141     -196.801453      -69.255447
