20
 generated by VMD
 C         -64.127831     -175.093185      -55.909863
 N         -63.238525     -175.404480      -56.622673
 H         -65.966194     -173.954620      -58.468708
 H         -65.006531     -174.863281      -55.314808
 C         -65.267876     -173.076508      -58.709354
 C         -65.565849     -171.696396      -58.280521
 C         -64.479294     -173.034424      -59.967350
 C         -64.422043     -170.652145      -58.345699
 C         -63.149700     -172.263229      -59.817619
 C         -63.446735     -170.714005      -59.551392
 H         -65.822357     -171.747925      -57.187073
 H         -66.508415     -171.462173      -58.801304
 H         -64.360298     -174.102997      -60.307762
 H         -65.170731     -172.726944      -60.785706
 H         -63.819263     -170.624390      -57.487640
 H         -64.856384     -169.681946      -58.414165
 H         -62.553959     -172.222397      -60.746609
 H         -62.624870     -172.718460      -58.924217
 H         -62.516869     -170.274109      -59.271618
 H         -63.873806     -170.223755      -60.427750
