20
 generated by VMD
 C          -2.611128      -16.763067        2.808060
 N          -1.948351      -17.042845        1.950169
 H          -4.659197      -16.003078        0.384124
 H          -4.525167      -17.440279       -0.715727
 C          -5.225166      -16.833944       -0.102160
 C          -6.267203      -16.189579       -1.060461
 C          -5.830463      -17.833586        0.866204
 C          -7.260608      -17.237591       -1.626315
 C          -6.631884      -18.870066        0.082247
 C          -7.811930      -18.190596       -0.539631
 H          -5.711307      -15.734823       -1.870154
 H          -6.790364      -15.317423       -0.573708
 H          -5.080815      -18.316860        1.492054
 H          -6.408354      -17.457920        1.633444
 H          -6.776232      -17.900795       -2.389527
 H          -8.124335      -16.746038       -2.197290
 H          -6.937979      -19.607170        0.785905
 H          -5.957158      -19.432705       -0.593081
 H          -8.400300      -18.941368       -1.069118
 H          -8.418950      -17.654699        0.168385
