20
 generated by VMD
 C         -19.890261      -61.919991      -17.751547
 N         -19.807667      -61.785000      -16.594118
 H         -21.999271      -64.824341      -16.407866
 H         -20.142626      -62.268520      -18.672983
 C         -22.911625      -64.968483      -16.967810
 C         -23.198629      -64.305984      -18.295057
 C         -24.076981      -65.252251      -16.072504
 C         -24.560757      -64.880112      -18.983343
 C         -25.313814      -65.826248      -16.819536
 C         -25.750668      -65.103012      -18.093239
 H         -22.315708      -64.433510      -19.048470
 H         -23.437914      -63.160881      -18.124748
 H         -23.678720      -66.068291      -15.471608
 H         -24.145224      -64.350250      -15.466714
 H         -24.245806      -65.785927      -19.512693
 H         -24.914360      -64.233559      -19.855785
 H         -26.082193      -65.895065      -16.099646
 H         -25.002529      -66.803566      -17.178032
 H         -26.609665      -65.456741      -18.639961
 H         -26.028984      -64.083000      -17.802956
