20
 generated by VMD
 C         -29.668573      -74.009331      -20.483015
 N         -30.035368      -75.075912      -20.268803
 H         -26.817278      -74.466400      -19.032200
 H         -29.305092      -73.022842      -20.911987
 C         -26.378695      -74.167259      -19.994474
 C         -25.994747      -75.300133      -20.870270
 C         -26.008856      -72.763657      -20.417500
 C         -26.043247      -74.905128      -22.343924
 C         -26.069532      -72.594635      -21.907898
 C         -25.294376      -73.594635      -22.736832
 H         -26.819340      -76.111595      -20.732832
 H         -24.962587      -75.759331      -20.617449
 H         -26.821543      -72.002251      -20.030754
 H         -24.987003      -72.571640      -19.920858
 H         -27.036222      -74.779076      -22.737644
 H         -25.661888      -75.811432      -22.827662
 H         -25.622475      -71.557487      -22.178402
 H         -27.051937      -72.555504      -22.351765
 H         -25.621960      -73.339645      -23.786766
 H         -24.236694      -73.576836      -22.510160
