20
 generated by VMD
 C         -31.935059      -76.231674      -24.449942
 N         -31.493546      -76.636597      -25.413437
 H         -29.733591      -77.791733      -22.545149
 H         -32.041538      -75.720734      -23.387211
 C         -28.648726      -77.886261      -22.255865
 C         -27.575550      -78.022385      -23.287426
 C         -28.375380      -78.382996      -20.876074
 C         -26.172319      -78.099037      -22.791924
 C         -26.949120      -78.501083      -20.302231
 C         -25.933729      -78.848801      -21.450600
 H         -27.749361      -77.404182      -24.205650
 H         -27.734570      -78.959122      -23.839497
 H         -29.101124      -77.938652      -20.261305
 H         -28.824142      -79.444435      -21.035904
 H         -25.816416      -77.032280      -22.674870
 H         -25.563595      -78.610283      -23.545097
 H         -26.874199      -79.294914      -19.557631
 H         -26.641237      -77.514473      -19.832125
 H         -24.937824      -78.519218      -21.165901
 H         -26.020226      -79.938690      -21.682215
