20
 generated by VMD
 C         -67.940643     -179.556183      -58.812462
 N         -68.103065     -179.764435      -59.957119
 H         -67.532440     -176.730820      -59.615814
 H         -67.818909     -179.264267      -57.753967
 C         -66.435181     -176.827545      -60.036533
 C         -66.117805     -176.210983      -61.395016
 C         -65.297050     -177.217560      -59.238960
 C         -64.995804     -175.163742      -61.374718
 C         -64.220139     -176.133926      -59.130947
 C         -63.898422     -175.545532      -60.398975
 H         -67.003288     -175.798904      -61.993404
 H         -65.731918     -177.003235      -62.037556
 H         -65.623512     -177.667511      -58.224010
 H         -64.811279     -178.091293      -59.730976
 H         -65.349197     -174.352280      -60.888882
 H         -64.705444     -174.848862      -62.376156
 H         -63.302841     -176.578018      -58.689510
 H         -64.674759     -175.378159      -58.447304
 H         -63.245293     -174.646851      -60.183132
 H         -63.255768     -176.105896      -61.066525
