20
 generated by VMD
 C         -69.174301     -180.379471      -60.701534
 N         -69.531456     -181.437576      -60.374519
 H         -67.323494     -177.858459      -59.615345
 H         -68.774567     -179.373138      -60.989185
 C         -66.354515     -177.343506      -59.872608
 C         -65.817162     -177.525940      -61.215340
 C         -65.330482     -177.231522      -58.808647
 C         -64.942261     -176.336945      -61.732555
 C         -64.383606     -176.049683      -59.232876
 C         -63.754791     -176.219193      -60.669910
 H         -66.736580     -177.422958      -61.841923
 H         -65.324928     -178.493973      -61.386028
 H         -65.894691     -177.172073      -57.822842
 H         -64.844521     -178.185043      -58.817780
 H         -65.512482     -175.360794      -61.685131
 H         -64.819153     -176.359100      -62.791317
 H         -63.686401     -175.830521      -58.383892
 H         -65.018578     -175.110718      -59.326180
 H         -63.377640     -175.196152      -60.975853
 H         -63.111797     -177.045029      -60.920521
