20
 generated by VMD
 C         -13.041781      -30.223803       -8.335131
 N         -13.860477      -30.398291       -9.086188
 H         -10.940078      -31.121351       -5.252842
 H         -10.911465      -31.614830       -3.564791
 C         -10.857009      -31.952454       -4.569776
 C          -9.417473      -32.532677       -4.804905
 C         -11.902570      -32.949825       -4.924736
 C          -9.261615      -33.929806       -4.130100
 C         -11.786053      -34.276276       -4.247164
 C         -10.404857      -34.853443       -4.540221
 H          -8.640390      -31.901028       -4.492300
 H          -9.192414      -32.698814       -5.885776
 H         -12.877360      -32.513889       -4.646227
 H         -11.937421      -33.080334       -6.020459
 H          -9.107252      -33.936455       -3.002890
 H          -8.316706      -34.400490       -4.475049
 H         -12.656527      -34.882164       -4.642011
 H         -11.990821      -34.235134       -3.163804
 H         -10.270685      -35.730099       -3.887109
 H         -10.308220      -35.134922       -5.586812
