20
 generated by VMD
 C         -52.919392     -147.283493      -45.437778
 N         -54.028805     -147.394440      -45.225098
 H         -55.018436     -147.509460      -48.537548
 H         -51.891476     -147.287628      -45.642651
 C         -54.572788     -146.504715      -48.746658
 C         -53.323708     -146.350754      -49.413563
 C         -55.055843     -145.337173      -47.915127
 C         -53.333565     -145.228058      -50.367805
 C         -55.173546     -144.237595      -48.940166
 C         -53.879581     -144.001572      -49.710850
 H         -53.054665     -147.299210      -49.825974
 H         -52.627388     -146.083679      -48.607399
 H         -56.119396     -145.401474      -47.549408
 H         -54.347164     -145.126099      -47.073112
 H         -54.009232     -145.559509      -51.265625
 H         -52.309261     -145.000031      -50.730953
 H         -55.518768     -143.337585      -48.500206
 H         -55.921093     -144.488480      -49.646339
 H         -54.175858     -143.366364      -50.499763
 H         -53.095932     -143.591125      -49.039738
