20
 generated by VMD
 C         -78.938919     -206.911484      -75.370964
 N         -79.719620     -207.062180      -76.172920
 H         -77.893738     -209.797592      -73.315346
 H         -78.308640     -206.957504      -74.567307
 C         -77.813606     -209.607727      -72.280510
 C         -76.694328     -208.710617      -71.922340
 C         -78.217041     -210.635773      -71.298248
 C         -76.673439     -208.273346      -70.502213
 C         -78.306595     -210.111710      -69.829880
 C         -76.856941     -209.530991      -69.504852
 H         -76.667076     -207.846375      -72.590492
 H         -75.814491     -209.283173      -72.133774
 H         -79.254356     -210.896942      -71.375717
 H         -77.648926     -211.577759      -71.517433
 H         -77.429504     -207.499512      -70.374367
 H         -75.756493     -207.710144      -70.406685
 H         -78.568779     -211.013885      -69.214523
 H         -79.064491     -209.347122      -69.611626
 H         -76.964462     -209.072266      -68.497513
 H         -75.930672     -210.167755      -69.488480
