20
 generated by VMD
 C         -40.325974     -118.105644      -34.726109
 N         -39.453884     -117.440247      -35.052212
 H         -42.318962     -116.351898      -36.751869
 H         -41.293110     -118.423584      -34.528133
 C         -43.217152     -116.608887      -37.347996
 C         -42.882225     -116.975090      -38.734798
 C         -44.574783     -116.313751      -36.880100
 C         -43.967678     -117.656326      -39.485825
 C         -45.641521     -116.933632      -37.727036
 C         -45.278271     -116.931374      -39.175213
 H         -41.903786     -117.557625      -38.765480
 H         -42.608444     -116.009010      -39.308483
 H         -44.533817     -116.594521      -35.827801
 H         -44.690502     -115.217384      -36.901447
 H         -43.946384     -118.676025      -39.140495
 H         -43.732807     -117.681870      -40.520435
 H         -46.627563     -116.275322      -37.576115
 H         -45.811306     -118.043251      -37.634361
 H         -46.130970     -117.523788      -39.787056
 H         -45.279579     -115.863785      -39.525681
