20
 generated by VMD
 C         -12.603436      -26.976379       -2.631216
 N         -12.510779      -27.780506       -1.848322
 H         -10.593986      -26.634977       -4.104917
 H          -9.311716      -26.013668       -5.179302
 C          -9.509173      -26.659424       -4.294261
 C          -8.989003      -28.062023       -4.596892
 C          -8.777341      -25.882072       -3.230047
 C          -7.451620      -28.315735       -4.388667
 C          -7.332922      -26.082869       -3.212680
 C          -6.876207      -27.535601       -3.258473
 H          -9.424619      -28.358782       -5.494845
 H          -9.392381      -28.781992       -3.817912
 H          -9.058867      -24.823847       -3.213594
 H          -9.260548      -26.248373       -2.285717
 H          -6.926440      -27.962639       -5.245838
 H          -7.221856      -29.345722       -4.274565
 H          -6.851630      -25.638653       -2.338418
 H          -6.945951      -25.662989       -4.122431
 H          -5.785795      -27.543449       -3.292556
 H          -7.237800      -27.935951       -2.273742
