20
 generated by VMD
 C         -78.617928     -209.646301      -77.369843
 N         -79.066383     -209.209442      -76.350113
 H         -78.228355     -210.068054      -73.495827
 H         -78.205444     -210.086197      -78.316788
 C         -78.441315     -210.972366      -72.853775
 C         -77.412338     -211.302643      -71.768066
 C         -79.541130     -211.919220      -72.945107
 C         -77.967743     -211.917847      -70.526817
 C         -80.161812     -212.329544      -71.674782
 C         -79.226875     -212.901855      -70.664467
 H         -76.927536     -210.363800      -71.547974
 H         -76.528008     -211.853867      -72.069679
 H         -80.331017     -211.398682      -73.606834
 H         -79.125122     -212.824677      -73.527000
 H         -78.248329     -211.039963      -69.938110
 H         -77.235039     -212.447861      -69.917572
 H         -81.049507     -213.079285      -71.905937
 H         -80.640671     -211.535553      -71.190720
 H         -79.647995     -213.218582      -69.697304
 H         -78.793365     -213.792877      -71.136284
