20
 generated by VMD
 C         -28.267824      -81.289169      -27.649136
 N         -29.384897      -81.035706      -27.438316
 H         -29.335098      -82.687927      -24.561058
 H         -27.224810      -81.503181      -27.618162
 C         -29.981035      -83.550415      -24.339647
 C         -30.095156      -83.973007      -22.861616
 C         -30.683998      -84.499313      -25.290827
 C         -31.518564      -84.211151      -22.469931
 C         -32.020668      -84.889351      -24.856310
 C         -32.180088      -85.251640      -23.376915
 H         -29.637276      -83.196854      -22.317539
 H         -29.461700      -84.827736      -22.600243
 H         -30.841103      -84.140205      -26.357702
 H         -30.001875      -85.327881      -25.473764
 H         -32.039921      -83.231186      -22.634026
 H         -31.504971      -84.383202      -21.432205
 H         -32.429466      -85.693703      -25.431873
 H         -32.696568      -83.985329      -24.990711
 H         -33.273090      -85.224831      -23.130808
 H         -31.850395      -86.246193      -23.201323
