20
 generated by VMD
 C         -49.085892     -127.104256      -38.958103
 N         -50.073685     -127.132080      -38.331303
 H         -46.932743     -124.962158      -39.571705
 H         -48.138031     -127.016098      -39.439899
 C         -46.113441     -124.643562      -40.156044
 C         -44.710018     -125.202148      -40.075130
 C         -46.204552     -123.170837      -40.556923
 C         -43.687469     -124.613373      -41.050545
 C         -45.173038     -122.663460      -41.574654
 C         -43.732346     -123.190948      -41.384850
 H         -44.735752     -126.200226      -40.316708
 H         -44.446838     -125.010910      -39.052738
 H         -47.245506     -122.952408      -41.000011
 H         -46.248943     -122.588425      -39.525707
 H         -43.807961     -125.172340      -42.000641
 H         -42.666531     -124.944061      -40.738411
 H         -45.367908     -121.491142      -41.620110
 H         -45.474934     -123.004021      -42.652008
 H         -43.131035     -122.852203      -42.283367
 H         -43.258392     -122.594940      -40.624722
