20
 generated by VMD
 C         -73.400406     -200.080338      -65.708588
 N         -73.737312     -200.890640      -64.939926
 H         -71.555267     -196.939789      -66.979378
 H         -73.099037     -199.456314      -66.534950
 C         -72.386208     -196.632462      -67.646935
 C         -73.398582     -195.619934      -67.121712
 C         -72.422211     -197.046875      -69.046379
 C         -74.171570     -195.091156      -68.377815
 C         -73.861206     -197.421432      -69.372276
 C         -74.742538     -196.149902      -69.306969
 H         -72.742027     -194.852448      -66.679550
 H         -74.164261     -196.045425      -66.384117
 H         -72.073517     -196.282745      -69.701263
 H         -71.818260     -197.893677      -69.159912
 H         -73.716225     -194.331604      -68.987915
 H         -75.063873     -194.583298      -67.930153
 H         -74.217377     -198.250290      -68.720406
 H         -73.950882     -197.739334      -70.362762
 H         -74.795555     -195.695648      -70.429695
 H         -75.822083     -196.345688      -68.873619
