20
 generated by VMD
 C         -22.795544      -52.438583      -12.095587
 N         -23.534039      -52.446564      -11.191175
 H         -19.905901      -53.458870      -14.360583
 H         -21.941925      -52.345810      -12.730379
 C         -18.983368      -53.186668      -13.966955
 C         -18.184021      -52.096905      -14.576575
 C         -18.119915      -54.172405      -13.252566
 C         -16.662437      -52.338528      -14.513917
 C         -17.070229      -53.561600      -12.351850
 C         -16.243082      -52.423954      -13.064784
 H         -18.581770      -51.144135      -14.174233
 H         -18.414406      -51.972702      -15.636817
 H         -18.689289      -54.834663      -12.651897
 H         -17.639742      -54.785187      -14.017103
 H         -16.255642      -51.433723      -14.985821
 H         -16.214544      -53.192280      -15.065255
 H         -16.300678      -54.353367      -12.075555
 H         -17.501436      -53.308037      -11.436631
 H         -16.315735      -51.414364      -12.589172
 H         -15.175563      -52.665092      -13.090717
