20
 generated by VMD
 C         -23.244709      -68.572083      -16.610409
 N         -23.153419      -69.370758      -15.794199
 H         -23.996262      -66.116325      -18.936031
 H         -23.440676      -67.913841      -17.505327
 C         -24.438599      -67.044258      -19.172022
 C         -23.913296      -67.657921      -20.446760
 C         -25.921778      -67.034668      -19.124125
 C         -24.469427      -69.003181      -20.695356
 C         -26.591539      -68.452690      -19.205837
 C         -26.030273      -69.134521      -20.487652
 H         -22.717052      -67.816444      -20.335293
 H         -24.096882      -67.018700      -21.318623
 H         -26.124748      -66.409500      -18.277250
 H         -26.389713      -66.315712      -19.752577
 H         -24.018885      -69.813103      -20.116236
 H         -24.245653      -69.261230      -21.699406
 H         -27.666517      -68.569931      -19.024160
 H         -26.219532      -68.948311      -18.321144
 H         -26.396797      -70.196457      -20.373341
 H         -26.496881      -68.604500      -21.384657
