20
 generated by VMD
 C         -49.162102     -127.063332      -39.746265
 N         -50.251022     -127.239365      -39.339764
 H         -46.854801     -126.968102      -42.549969
 H         -48.145920     -126.846481      -40.111980
 C         -46.214790     -126.404427      -41.820568
 C         -45.330597     -126.909081      -40.845039
 C         -46.687511     -124.941872      -41.925549
 C         -44.240807     -125.941429      -40.406231
 C         -45.500237     -124.041931      -41.530365
 C         -44.920662     -124.531929      -40.147766
 H         -44.850368     -127.749603      -41.316051
 H         -45.842007     -127.261459      -39.837326
 H         -46.966522     -124.784019      -42.989475
 H         -47.477730     -124.811432      -41.266308
 H         -43.599648     -125.821236      -41.243134
 H         -43.655788     -126.239944      -39.553600
 H         -45.759392     -122.988846      -41.455368
 H         -44.747814     -124.012779      -42.367310
 H         -44.131546     -123.908493      -39.645447
 H         -45.775249     -124.655052      -39.404564
