20
 generated by VMD
 C         -29.441612      -90.005669      -25.214518
 N         -29.090982      -91.110298      -25.444447
 H         -32.260773      -91.343491      -27.110765
 H         -29.706675      -89.090088      -24.834414
 C         -33.137482      -90.807068      -27.498234
 C         -34.413048      -91.565392      -27.521893
 C         -32.888470      -89.705330      -28.468454
 C         -35.508869      -90.481667      -27.297421
 C         -33.980579      -88.588753      -28.293560
 C         -35.358334      -89.130524      -28.061247
 H         -34.386795      -92.240242      -26.658768
 H         -34.608120      -92.099327      -28.545343
 H         -31.977682      -89.136688      -28.125992
 H         -32.791058      -90.160469      -29.463818
 H         -35.559853      -90.146454      -26.262568
 H         -36.517429      -90.909790      -27.413216
 H         -33.912144      -88.018997      -29.232115
 H         -33.648724      -87.930649      -27.480066
 H         -36.010719      -88.436920      -27.595739
 H         -35.733109      -89.494293      -28.992279
