20
 generated by VMD
 C         -58.892948     -152.612961      -50.709957
 N         -59.956284     -152.930466      -50.411442
 H         -56.889065     -151.437500      -48.561878
 H         -57.931198     -152.124695      -50.932346
 C         -56.134628     -151.142715      -49.299164
 C         -55.408207     -152.216949      -50.018871
 C         -55.784470     -149.769547      -49.485909
 C         -54.517242     -151.834518      -51.282413
 C         -54.783760     -149.447937      -50.586388
 C         -53.799797     -150.583313      -50.850853
 H         -56.083694     -152.928864      -50.349674
 H         -54.802967     -152.755646      -49.276546
 H         -56.715588     -149.191406      -49.509632
 H         -55.378307     -149.529343      -48.470459
 H         -55.082550     -151.748016      -52.212345
 H         -53.840420     -152.642136      -51.459263
 H         -54.051422     -148.635330      -50.144203
 H         -55.368542     -149.059174      -51.339283
 H         -52.990215     -150.224823      -51.680508
 H         -53.384319     -150.889023      -49.891235
