20
 generated by VMD
 C         -70.272835     -183.670380      -66.196159
 N         -69.125473     -183.405930      -66.117569
 H         -68.125435     -184.796814      -63.412098
 H         -71.367096     -183.810120      -66.292038
 C         -68.387680     -184.248230      -62.485664
 C         -68.597725     -184.720428      -61.124641
 C         -68.099792     -182.778091      -62.601048
 C         -67.728928     -184.263565      -59.974499
 C         -66.999428     -182.410522      -61.633369
 C         -67.329689     -182.803116      -60.177685
 H         -68.522446     -185.779129      -61.330441
 H         -69.672005     -184.507904      -60.810596
 H         -67.841843     -182.541824      -63.649700
 H         -68.880562     -182.172180      -62.182686
 H         -66.787910     -184.896561      -59.928349
 H         -68.349762     -184.444580      -59.027054
 H         -66.905556     -181.360184      -61.815506
 H         -66.080353     -182.970810      -61.796272
 H         -66.437859     -182.613266      -59.434258
 H         -68.054390     -182.096634      -59.730343
