20
 generated by VMD
 C         -28.193058      -86.307167      -26.266098
 N         -27.933826      -87.199234      -26.977150
 H         -31.036352      -86.833038      -25.286730
 H         -28.295877      -85.565414      -25.536884
 C         -31.949032      -87.318504      -25.614527
 C         -32.935379      -87.800598      -24.687826
 C         -32.007244      -87.753967      -27.029888
 C         -34.368649      -87.605186      -25.029650
 C         -33.533894      -87.541565      -27.599630
 C         -34.658031      -87.997261      -26.506420
 H         -32.954769      -87.285431      -23.659935
 H         -32.628380      -88.889923      -24.588764
 H         -31.269283      -87.106209      -27.550652
 H         -31.672310      -88.803116      -27.021820
 H         -34.736782      -86.608192      -24.792744
 H         -35.095329      -88.199089      -24.416380
 H         -33.750206      -87.934402      -28.619625
 H         -33.689354      -86.415817      -27.728086
 H         -35.602737      -87.586098      -26.934565
 H         -34.564411      -89.075546      -26.729237
