20
 generated by VMD
 C         -68.128082     -185.164719      -67.722839
 N         -67.591667     -185.851257      -66.966125
 H         -69.588463     -185.187988      -64.417343
 H         -68.622269     -184.633804      -68.554276
 C         -69.692566     -185.631454      -63.492390
 C         -70.791801     -185.306992      -62.663212
 C         -69.013985     -186.923859      -63.153076
 C         -70.465614     -185.346329      -61.164219
 C         -68.407646     -186.811920      -61.722168
 C         -69.570213     -186.528687      -60.724968
 H         -71.685783     -185.941559      -62.917130
 H         -71.221016     -184.335037      -62.958744
 H         -69.620857     -187.849838      -63.362343
 H         -68.128220     -187.157227      -63.795502
 H         -71.356697     -185.366638      -60.567333
 H         -70.108360     -184.386429      -60.787712
 H         -67.624397     -186.051437      -61.648197
 H         -67.858559     -187.769592      -61.452816
 H         -70.257278     -187.504562      -60.704987
 H         -69.278511     -186.278946      -59.635929
