20
 generated by VMD
 C         -40.063931     -100.859528      -31.678650
 N         -40.724770     -100.142365      -31.055090
 H         -37.516663     -103.606079      -31.570797
 H         -39.332706     -101.416374      -32.237244
 C         -36.877037     -102.711853      -31.636587
 C         -35.898403     -102.053658      -32.606293
 C         -36.764118     -102.139839      -30.270836
 C         -35.789417     -100.582916      -32.578789
 C         -36.163124     -100.769958      -30.118204
 C         -35.363312     -100.182053      -31.251080
 H         -36.247238     -102.243645      -33.630188
 H         -34.905056     -102.612297      -32.566376
 H         -37.863052     -102.163857      -29.976757
 H         -36.227623     -102.863457      -29.643408
 H         -36.608795      -99.974045      -32.910503
 H         -34.963898     -100.186050      -33.217690
 H         -35.608860     -100.675011      -29.128963
 H         -37.039959     -100.095123      -29.965406
 H         -35.319153      -99.119492      -31.245012
 H         -34.294834     -100.359840      -31.066040
