20
 generated by VMD
 C         -71.936768     -199.193161      -64.843132
 N         -70.829834     -198.960403      -65.071205
 H         -72.024559     -196.558258      -66.547256
 H         -73.005165     -199.215210      -64.630241
 C         -72.739899     -195.980835      -67.110535
 C         -72.916275     -194.488541      -66.865662
 C         -73.080818     -196.419815      -68.527283
 C         -73.629616     -193.839737      -67.991676
 C         -74.473549     -195.997437      -68.962250
 C         -74.811562     -194.550323      -68.584763
 H         -72.015701     -193.863922      -66.575241
 H         -73.496506     -194.464859      -65.878944
 H         -72.363266     -196.085052      -69.211029
 H         -73.158234     -197.476135      -68.497490
 H         -72.921982     -193.621002      -68.872025
 H         -73.879501     -192.777847      -67.719139
 H         -75.221046     -196.758652      -68.631638
 H         -74.584381     -195.921036      -70.060577
 H         -75.285034     -194.028641      -69.337669
 H         -75.788963     -194.707733      -67.895889
