20
 generated by VMD
 C         -59.944656     -152.403397      -51.040237
 N         -60.804222     -153.045471      -51.356068
 H         -56.794655     -152.543518      -48.842262
 H         -59.189846     -151.759857      -50.669567
 C         -56.022785     -152.056839      -49.433338
 C         -54.685616     -152.669250      -49.554256
 C         -56.048115     -150.580750      -49.681023
 C         -53.953716     -152.318710      -50.861916
 C         -55.237030     -150.014374      -50.930801
 C         -53.870560     -150.761795      -51.054810
 H         -54.800667     -153.741409      -49.479450
 H         -54.028286     -152.364426      -48.648937
 H         -57.050671     -150.215515      -49.765156
 H         -55.561680     -150.012573      -48.935101
 H         -54.664436     -152.602264      -51.672935
 H         -53.089024     -152.912399      -51.067932
 H         -55.034409     -148.912628      -50.737942
 H         -55.665741     -150.103317      -51.860271
 H         -53.227818     -150.602615      -51.926998
 H         -53.307480     -150.510117      -50.171665
