20
 generated by VMD
 C         -31.837290      -93.106033      -26.024529
 N         -32.305031      -93.990753      -25.473957
 H         -33.484268      -94.421188      -28.194923
 H         -31.377680      -92.330017      -26.628141
 C         -34.092072      -93.589531      -28.600351
 C         -35.532890      -93.276222      -28.110895
 C         -33.430290      -92.959724      -29.823048
 C         -35.578918      -91.798767      -28.029785
 C         -33.649784      -91.454208      -29.799971
 C         -35.060623      -91.058540      -29.337725
 H         -35.522282      -93.683426      -27.067614
 H         -36.183174      -93.858643      -28.733950
 H         -32.438190      -93.349716      -29.913719
 H         -33.891674      -93.318466      -30.771185
 H         -35.063911      -91.297264      -27.101702
 H         -36.621700      -91.499817      -27.851561
 H         -33.370083      -91.030144      -30.804165
 H         -32.968758      -90.949631      -29.120165
 H         -34.850727      -90.058121      -28.914463
 H         -35.649151      -91.028694      -30.317745
