20
 generated by VMD
 C         -38.352127      -98.590706      -27.768402
 N         -38.365700      -99.686974      -27.342197
 H         -37.389278      -97.067383      -31.021839
 H         -38.374004      -97.702728      -28.323032
 C         -36.449631      -97.688713      -30.768610
 C         -35.656422      -98.056717      -31.929026
 C         -35.659512      -97.254524      -29.521109
 C         -34.369061      -97.294731      -32.236256
 C         -34.593880      -96.211494      -29.895361
 C         -33.580524      -96.753235      -30.935009
 H         -36.378777      -97.944466      -32.781628
 H         -35.544849      -99.141014      -31.760687
 H         -36.303852      -96.899803      -28.687904
 H         -35.122086      -98.120209      -29.176210
 H         -34.673191      -96.329422      -32.720268
 H         -33.694893      -97.728737      -33.148899
 H         -33.957771      -96.040436      -28.999454
 H         -35.033218      -95.270859      -30.189590
 H         -32.986027      -95.949196      -31.201984
 H         -32.887939      -97.583107      -30.548216
