20
 generated by VMD
 C         -78.926994     -207.177139      -75.330025
 N         -79.836784     -207.003265      -75.986038
 H         -77.893692     -209.285019      -73.368362
 H         -78.084564     -207.286270      -74.609642
 C         -77.710938     -209.396927      -72.317978
 C         -76.581177     -208.604691      -71.851570
 C         -78.268402     -210.393921      -71.363182
 C         -76.578804     -208.123825      -70.403961
 C         -78.201210     -210.114670      -69.908287
 C         -76.887192     -209.442657      -69.521530
 H         -76.503052     -207.732300      -72.505409
 H         -75.677650     -209.178558      -71.985977
 H         -79.327652     -210.268112      -71.639481
 H         -78.063179     -211.461960      -71.644035
 H         -77.308998     -207.337601      -70.201920
 H         -75.601135     -207.844131      -70.056351
 H         -78.233604     -211.131439      -69.383537
 H         -79.067772     -209.596909      -69.528160
 H         -76.890083     -209.066956      -68.489082
 H         -76.217728     -210.340256      -69.500206
