20
 generated by VMD
 C          -1.231551      -12.438083        1.343976
 N          -0.780366      -12.677996        0.354990
 H          -4.173927      -12.975526        1.018388
 H          -5.854848      -13.317128        0.659007
 C          -4.947840      -13.721749        1.174659
 C          -5.198338      -13.987804        2.625427
 C          -4.551185      -14.924769        0.333111
 C          -6.327497      -15.021602        2.694184
 C          -5.544916      -16.061649        0.491611
 C          -6.003610      -16.333761        1.914753
 H          -5.535162      -13.047010        3.106604
 H          -4.297870      -14.517379        3.058731
 H          -4.530431      -14.569094       -0.774471
 H          -3.470881      -15.283837        0.567569
 H          -7.226882      -14.621767        2.235236
 H          -6.489443      -15.295083        3.727052
 H          -5.180261      -17.001030        0.062951
 H          -6.439826      -15.823013       -0.045276
 H          -6.962503      -16.901552        1.930704
 H          -5.298595      -16.899456        2.524403
