20
 generated by VMD
 C         -19.594305      -58.360744      -17.177225
 N         -19.275745      -58.773773      -18.219599
 H         -22.452814      -59.667805      -16.293104
 H         -20.304634      -58.092472      -16.247034
 C         -22.795162      -60.727440      -16.223333
 C         -23.657696      -61.564137      -17.064611
 C         -22.551659      -61.195793      -14.805376
 C         -23.393543      -63.040230      -16.884111
 C         -22.048267      -62.627052      -14.940904
 C         -23.186966      -63.530941      -15.404185
 H         -23.558426      -61.213921      -18.138359
 H         -24.756493      -61.413441      -16.682291
 H         -21.859371      -60.628033      -14.268014
 H         -23.454752      -61.105427      -14.184778
 H         -22.472864      -63.239830      -17.401226
 H         -24.138744      -63.614639      -17.343721
 H         -21.679855      -62.991135      -13.963449
 H         -21.115011      -62.724667      -15.540532
 H         -22.765644      -64.538025      -15.504949
 H         -23.999105      -63.567074      -14.730481
