20
 generated by VMD
 C         -61.060802     -154.984085      -53.396500
 N         -61.261513     -154.542999      -52.339699
 H         -58.070984     -154.316635      -52.496922
 H         -60.922546     -155.450012      -54.378387
 C         -57.169327     -154.397934      -51.906475
 C         -57.476479     -154.162323      -50.437378
 C         -55.830738     -153.925949      -52.511765
 C         -56.223297     -154.546570      -49.633759
 C         -54.614235     -154.320374      -51.582378
 C         -54.819675     -153.925690      -50.133091
 H         -58.316055     -154.881577      -50.304138
 H         -57.648415     -153.139404      -50.024448
 H         -55.713646     -154.360016      -53.567329
 H         -55.833958     -152.835938      -52.540081
 H         -56.126957     -155.698654      -49.735279
 H         -56.514645     -154.335815      -48.550865
 H         -53.644302     -153.839264      -51.940948
 H         -54.446789     -155.413651      -51.661751
 H         -54.080853     -154.265045      -49.524006
 H         -54.948109     -152.799591      -50.107422
