20
 generated by VMD
 C         -40.261429      -99.663895      -28.966965
 N         -39.458828     -100.099625      -28.231390
 H         -37.374950      -98.991753      -30.755470
 H         -40.853146      -99.163239      -29.813412
 C         -36.446449      -98.529724      -30.784935
 C         -35.841953      -98.956558      -32.033844
 C         -35.500095      -98.512375      -29.595827
 C         -34.678299      -98.017815      -32.467430
 C         -34.284294      -97.535828      -29.966438
 C         -33.556046      -97.834419      -31.330633
 H         -36.527645      -99.161125      -32.915394
 H         -35.396156      -99.911102      -31.838604
 H         -35.990540      -98.245514      -28.580605
 H         -35.122417      -99.533249      -29.420765
 H         -35.158081      -97.072449      -32.795017
 H         -34.177811      -98.354027      -33.470314
 H         -33.487667      -97.591980      -29.199768
 H         -34.782574      -96.605759      -29.870483
 H         -32.835052      -97.093140      -31.584208
 H         -32.889534      -98.776939      -31.159916
