20
 generated by VMD
 C         -12.024109      -41.416225       -7.635961
 N         -11.717305      -40.680515       -6.831084
 H         -14.023925      -40.764187       -8.180559
 H         -15.049286      -40.116043       -9.453621
 C         -14.746431      -41.081379       -8.972805
 C         -15.910046      -41.682709       -8.098545
 C         -14.187696      -41.988934      -10.072380
 C         -17.048431      -42.203049       -9.012737
 C         -15.355110      -42.470806      -10.891788
 C         -16.542387      -43.083199      -10.170708
 H         -16.374086      -40.889809       -7.519802
 H         -15.519506      -42.451332       -7.440985
 H         -13.470341      -41.397812      -10.611875
 H         -13.721941      -42.887352       -9.617975
 H         -17.601377      -41.357403       -9.421030
 H         -17.670565      -42.883804       -8.373610
 H         -14.963415      -43.285484      -11.642786
 H         -15.721237      -41.698223      -11.537912
 H         -17.338318      -43.386845      -10.901822
 H         -16.252842      -44.099285       -9.783789
