20
 generated by VMD
 C         -78.842651     -209.356476      -76.679161
 N         -79.723061     -208.802902      -77.141747
 H         -77.860680     -208.938629      -72.975143
 H         -78.014572     -209.689209      -76.180649
 C         -77.970421     -209.852402      -72.383759
 C         -76.852661     -210.108536      -71.357414
 C         -79.174477     -210.838150      -72.506088
 C         -77.465149     -210.791306      -70.076408
 C         -79.501350     -211.641373      -71.183716
 C         -78.378433     -212.001968      -70.294205
 H         -76.257439     -209.206131      -71.142540
 H         -76.170517     -210.735504      -71.849533
 H         -80.092308     -210.312485      -72.767677
 H         -78.874352     -211.495407      -73.373444
 H         -78.112755     -210.061218      -69.601852
 H         -76.639740     -211.104248      -69.442207
 H         -79.884987     -212.591705      -71.607414
 H         -80.361031     -211.187042      -70.531097
 H         -78.705177     -212.679901      -69.491295
 H         -77.667892     -212.673035      -70.870163
