20
 generated by VMD
 C         -58.985130     -151.972534      -49.038662
 N         -58.995163     -152.208405      -50.162415
 H         -56.545113     -150.754959      -48.587662
 H         -59.075783     -151.635773      -48.032566
 C         -55.680664     -150.356094      -49.085110
 C         -54.738770     -151.300400      -49.701687
 C         -55.316586     -148.777908      -49.191628
 C         -54.180546     -150.779495      -51.011356
 C         -54.796192     -148.364502      -50.609444
 C         -53.756397     -149.355179      -50.987549
 H         -55.214119     -152.246231      -49.834648
 H         -53.873653     -151.721573      -49.061047
 H         -56.223675     -148.198013      -48.872780
 H         -54.498650     -148.654358      -48.512726
 H         -54.854042     -150.960693      -51.871941
 H         -53.338474     -151.429657      -51.172291
 H         -54.274021     -147.396744      -50.533092
 H         -55.629749     -148.503479      -51.407146
 H         -53.278561     -149.061310      -52.026615
 H         -53.035500     -149.241577      -50.211159
