20
 generated by VMD
 C         -19.398682      -60.722317      -17.746634
 N         -20.195902      -59.876255      -17.795046
 H         -22.674751      -60.208801      -15.803648
 H         -18.560392      -61.498440      -17.947783
 C         -23.184807      -61.075611      -16.111456
 C         -23.029009      -61.547840      -17.477739
 C         -23.740404      -61.909527      -14.958277
 C         -22.851233      -63.140137      -17.429903
 C         -23.037977      -63.179909      -14.963442
 C         -23.276632      -63.967953      -16.217299
 H         -22.303053      -61.098179      -18.128155
 H         -23.946880      -61.221745      -17.998243
 H         -23.614367      -61.501904      -14.042818
 H         -24.817322      -62.001671      -15.078443
 H         -21.731588      -63.267342      -17.605227
 H         -23.257799      -63.510017      -18.397768
 H         -23.402443      -63.749771      -14.084040
 H         -21.929665      -63.022118      -14.988139
 H         -22.685257      -64.865417      -16.139854
 H         -24.323927      -64.293007      -16.161032
