20
 generated by VMD
 C         -45.237900     -123.107201      -35.428127
 N         -45.763031     -124.149300      -35.226372
 H         -44.922310     -122.286880      -38.286503
 H         -44.949650     -122.122025      -35.618504
 C         -44.826130     -121.587738      -39.067711
 C         -43.404274     -121.370087      -39.572422
 C         -45.950470     -120.807671      -39.526299
 C         -43.393181     -120.867638      -41.114723
 C         -45.799084     -120.123314      -40.945511
 C         -44.334812     -119.694656      -41.267857
 H         -42.900620     -122.394707      -39.730518
 H         -42.856277     -120.836540      -38.835499
 H         -46.785065     -121.535149      -39.384964
 H         -46.202568     -119.965103      -38.721184
 H         -43.542625     -121.620598      -41.833599
 H         -42.397526     -120.437706      -41.227943
 H         -46.533501     -119.361099      -41.089882
 H         -46.202732     -120.761536      -41.705147
 H         -44.361801     -119.259247      -42.287075
 H         -44.066429     -118.870163      -40.520000
