20
 generated by VMD
 C         -49.299065     -141.046249      -45.626614
 N         -48.365963     -141.390564      -44.978771
 H         -51.327320     -138.619125      -46.092041
 H         -50.157547     -140.629471      -46.168751
 C         -52.067734     -139.332504      -46.335903
 C         -52.587208     -139.356201      -47.706764
 C         -52.915237     -139.917328      -45.109406
 C         -53.396641     -140.688446      -47.987217
 C         -53.380550     -141.326340      -45.534443
 C         -54.219341     -141.321960      -46.784184
 H         -51.782825     -139.486282      -48.468910
 H         -53.136280     -138.452087      -47.901211
 H         -52.256931     -139.910904      -44.206448
 H         -53.727291     -139.080292      -44.941589
 H         -52.525127     -141.378357      -48.251682
 H         -54.089443     -140.806549      -48.844120
 H         -53.887222     -141.674973      -44.613667
 H         -52.561466     -142.024368      -45.722713
 H         -54.305054     -142.367218      -47.012749
 H         -55.172222     -140.917343      -46.693443
