20
 generated by VMD
 C         -31.485497      -75.678215      -23.748259
 N         -31.001606      -76.145805      -24.666550
 H         -29.651806      -78.431129      -22.193108
 H         -32.219425      -75.320953      -23.186882
 C         -28.608597      -78.155983      -21.997971
 C         -27.575449      -78.369164      -23.100311
 C         -27.999678      -78.154846      -20.573381
 C         -26.296968      -77.364311      -23.008173
 C         -26.814013      -77.164902      -20.556671
 C         -25.740076      -77.573883      -21.628531
 H         -28.047434      -78.154823      -24.059317
 H         -27.337025      -79.448479      -23.245226
 H         -28.747065      -77.904144      -19.842569
 H         -27.746759      -79.266647      -20.330217
 H         -26.500246      -76.314079      -23.233580
 H         -25.550535      -77.714096      -23.698940
 H         -26.292471      -77.244499      -19.475704
 H         -27.142344      -76.077866      -20.590090
 H         -24.920307      -76.905251      -21.383413
 H         -25.540518      -78.694458      -21.509771
