20
 generated by VMD
 C         -38.890335     -115.825142      -35.362251
 N         -39.395164     -115.368263      -34.442646
 H         -41.339958     -115.441826      -37.108719
 H         -38.478867     -116.222618      -36.289112
 C         -42.363811     -115.740761      -37.339466
 C         -42.992462     -115.509392      -38.721294
 C         -43.320557     -115.603172      -36.202415
 C         -44.278938     -116.304520      -38.908791
 C         -44.769245     -116.176231      -36.441978
 C         -45.378231     -115.924538      -37.866169
 H         -42.155315     -115.846817      -39.416077
 H         -43.210735     -114.430405      -38.966282
 H         -42.935925     -116.240959      -35.347111
 H         -43.343613     -114.663841      -35.630344
 H         -44.125557     -117.363205      -38.687695
 H         -44.565189     -116.175682      -40.004250
 H         -45.572670     -115.857796      -35.698856
 H         -44.641857     -117.323105      -36.221115
 H         -46.240662     -116.496399      -38.017784
 H         -45.518669     -114.775307      -37.978630
