20
 generated by VMD
 C         -60.817738     -153.282761      -52.368771
 N         -60.916088     -153.292236      -51.212730
 H         -57.532154     -153.833420      -50.783386
 H         -60.678268     -153.300339      -53.444889
 C         -56.560638     -153.366379      -50.733456
 C         -55.707359     -153.745377      -49.559162
 C         -56.423195     -152.065689      -51.390312
 C         -54.288086     -153.289215      -49.847851
 C         -54.983440     -151.813095      -51.788673
 C         -54.206959     -151.879486      -50.402672
 H         -55.700298     -154.819473      -49.411015
 H         -56.130943     -153.237213      -48.634750
 H         -57.111530     -151.948257      -52.248672
 H         -56.777805     -151.282440      -50.693748
 H         -53.860958     -153.927078      -50.583466
 H         -53.881657     -153.389114      -48.835636
 H         -54.785702     -150.868256      -52.510044
 H         -54.571445     -152.658142      -52.396511
 H         -53.088638     -151.712006      -50.662430
 H         -54.540405     -151.245590      -49.634449
