20
 generated by VMD
 C         -70.323051     -182.820007      -64.655769
 N         -70.414291     -183.641998      -65.485382
 H         -67.730492     -180.821045      -62.980148
 H         -70.115776     -182.091339      -63.895924
 C         -67.696548     -180.928619      -61.879803
 C         -67.690010     -182.234512      -61.257702
 C         -67.013130     -179.882248      -61.083149
 C         -66.516144     -182.737167      -60.487537
 C         -65.714798     -180.351044      -60.520729
 C         -65.947166     -181.517899      -59.578312
 H         -67.994972     -182.916595      -62.042336
 H         -68.489555     -182.390060      -60.433563
 H         -66.766930     -179.175949      -61.756588
 H         -67.674553     -179.515488      -60.269039
 H         -65.730263     -183.049088      -61.123096
 H         -66.898888     -183.512894      -59.789272
 H         -65.438095     -179.458099      -59.961826
 H         -64.892876     -180.679565      -61.193359
 H         -65.042221     -181.885208      -59.204617
 H         -66.778511     -181.445435      -58.775726
