20
 generated by VMD
 C         -50.789898     -129.711853      -46.157017
 N         -50.855392     -130.368134      -45.140636
 H         -48.091019     -131.746109      -44.254681
 H         -50.959328     -129.322983      -47.160049
 C         -47.968369     -131.696854      -43.195332
 C         -48.227234     -133.008743      -42.518963
 C         -47.948139     -130.362091      -42.598530
 C         -47.618355     -132.969055      -41.108749
 C         -47.280701     -130.400970      -41.262684
 C         -47.832947     -131.626877      -40.339783
 H         -47.839340     -133.824753      -43.171978
 H         -49.330448     -133.131317      -42.395535
 H         -47.364971     -129.679764      -43.285965
 H         -48.993458     -129.881836      -42.551758
 H         -46.592117     -133.154968      -41.345043
 H         -47.947365     -133.894791      -40.613663
 H         -47.349110     -129.577255      -40.554001
 H         -46.206661     -130.594421      -41.298080
 H         -47.369999     -131.626862      -39.378262
 H         -48.954937     -131.635117      -40.299915
