20
 generated by VMD
 C         -68.120804     -179.215546      -58.325645
 N         -67.188629     -178.701752      -57.848927
 H         -65.939354     -176.319260      -58.816959
 H         -69.051094     -179.564301      -58.760616
 C         -65.389107     -175.730316      -59.534615
 C         -66.071503     -174.697540      -60.391003
 C         -63.874645     -176.013901      -59.591946
 C         -65.315323     -173.433716      -60.263000
 C         -63.138920     -174.625229      -59.738651
 C         -63.874054     -173.564209      -60.592934
 H         -67.065086     -174.624664      -59.962734
 H         -66.206741     -174.881363      -61.545101
 H         -63.442623     -176.567902      -58.776711
 H         -63.602215     -176.599304      -60.531635
 H         -65.528984     -173.098221      -59.306179
 H         -65.828545     -172.808319      -60.978115
 H         -62.063740     -174.631943      -60.050285
 H         -63.141022     -174.345108      -58.728287
 H         -63.250202     -172.687119      -60.531216
 H         -63.867115     -174.073959      -61.636436
