20
 generated by VMD
 C         -50.311451     -129.550476      -43.470093
 N         -50.832684     -129.762054      -44.427929
 H         -49.203239     -127.793686      -40.874470
 H         -49.782558     -129.212234      -42.568611
 C         -48.147755     -128.162476      -41.100647
 C         -47.724430     -129.575623      -40.955170
 C         -47.009506     -127.279556      -40.809116
 C         -46.421944     -129.927979      -41.646538
 C         -45.621140     -127.570877      -41.423374
 C         -45.281219     -129.067078      -41.161430
 H         -48.566818     -130.129608      -41.282490
 H         -47.552395     -129.771301      -39.841576
 H         -47.477547     -126.281357      -41.153095
 H         -46.983978     -127.151077      -39.785450
 H         -46.472931     -129.611801      -42.709175
 H         -46.233070     -130.991821      -41.404495
 H         -45.032337     -126.780846      -40.869698
 H         -45.598003     -127.360649      -42.589256
 H         -44.350498     -129.360107      -41.731716
 H         -45.041298     -129.137375      -40.116066
