20
 generated by VMD
 C         -30.179483      -92.492752      -25.741236
 N         -29.462996      -92.367592      -24.859293
 H         -32.356972      -90.065132      -26.788090
 H         -30.914070      -92.597717      -26.461317
 C         -33.239468      -90.171577      -27.353615
 C         -34.079288      -91.367722      -27.071232
 C         -33.394760      -89.215973      -28.566870
 C         -35.450985      -91.289848      -27.753635
 C         -34.799297      -89.294060      -29.280561
 C         -35.290127      -90.725525      -29.170406
 H         -34.326485      -91.518234      -26.020657
 H         -33.794727      -92.280487      -27.604557
 H         -33.121418      -88.205566      -28.132132
 H         -32.555145      -89.538551      -29.269600
 H         -36.079533      -90.525513      -27.109745
 H         -35.935974      -92.254517      -27.733208
 H         -34.754112      -88.942940      -30.312141
 H         -35.454411      -88.568024      -28.770344
 H         -36.238884      -90.516022      -29.653889
 H         -34.747196      -91.399727      -29.847496
