20
 generated by VMD
 C         -55.838326     -149.136475      -45.814087
 N         -55.517479     -149.916290      -44.993145
 H         -54.705376     -148.258301      -48.490498
 H         -56.299694     -148.401825      -46.455112
 C         -54.198948     -147.294800      -48.789127
 C         -53.101505     -147.380875      -49.823624
 C         -54.855656     -146.006882      -48.492275
 C         -53.543198     -146.656036      -51.122440
 C         -55.173981     -145.400681      -49.815403
 C         -54.049961     -145.251862      -50.817322
 H         -53.144577     -148.491028      -50.096069
 H         -52.144039     -147.015106      -49.576744
 H         -55.707325     -146.066010      -47.805889
 H         -54.183105     -145.446243      -47.991047
 H         -54.227230     -147.229599      -51.669025
 H         -52.731682     -146.425964      -51.785133
 H         -55.503170     -144.425446      -49.585461
 H         -56.077633     -145.885452      -50.294312
 H         -54.476662     -144.833725      -51.692284
 H         -53.385445     -144.527191      -50.302322
