20
 generated by VMD
 C         -70.609932     -182.024948      -63.858238
 N         -69.593491     -182.583054      -63.932289
 H         -68.994522     -180.840439      -61.271019
 H         -71.556679     -181.492981      -63.836105
 C         -67.893791     -180.606552      -61.252468
 C         -67.116585     -181.979584      -61.020275
 C         -67.249496     -179.298187      -60.679737
 C         -65.625603     -181.861328      -60.903263
 C         -65.774101     -179.247620      -60.804699
 C         -65.152351     -180.511551      -60.144630
 H         -67.423592     -182.741806      -61.760632
 H         -67.417496     -182.377289      -60.029045
 H         -67.907585     -178.440353      -61.143860
 H         -67.411926     -179.283752      -59.578514
 H         -65.139488     -181.756927      -61.908401
 H         -65.117378     -182.688965      -60.363956
 H         -65.488968     -178.279205      -60.382969
 H         -65.496613     -179.158478      -61.841309
 H         -64.054367     -180.330765      -60.135460
 H         -65.410934     -180.714417      -59.150040
