20
 generated by VMD
 C         -40.319031     -118.695618      -35.134747
 N         -39.462650     -117.908585      -35.019146
 H         -43.023846     -116.487358      -36.213181
 H         -41.215538     -119.173500      -35.311768
 C         -43.651737     -116.791016      -37.089584
 C         -42.932381     -117.233238      -38.369503
 C         -45.022644     -116.182411      -37.256046
 C         -43.793091     -117.964600      -39.344551
 C         -45.872093     -117.033218      -38.224319
 C         -45.134655     -117.351044      -39.510014
 H         -42.087811     -117.928680      -38.135647
 H         -42.414299     -116.304893      -38.698624
 H         -45.500782     -116.195229      -36.286427
 H         -45.109325     -115.089607      -37.538174
 H         -43.914368     -118.964798      -38.871338
 H         -43.367413     -118.110489      -40.318027
 H         -46.669685     -116.377342      -38.533989
 H         -46.087914     -117.991905      -37.786709
 H         -45.743320     -118.000046      -40.216427
 H         -44.933823     -116.402115      -39.956242
