20
 generated by VMD
 C         -70.571381     -196.806885      -66.317444
 N         -69.732567     -196.185944      -65.833122
 H         -73.234962     -194.919586      -64.449333
 H         -71.476730     -197.162155      -66.677307
 C         -73.439713     -194.582245      -65.488968
 C         -72.405548     -193.568802      -66.028961
 C         -74.186386     -195.319809      -66.505676
 C         -72.966057     -192.819672      -67.282310
 C         -73.532593     -195.200775      -67.924644
 C         -73.457886     -193.725235      -68.405441
 H         -71.551880     -194.098587      -66.277908
 H         -72.099129     -192.895248      -65.155502
 H         -74.188553     -196.442307      -66.341179
 H         -75.198593     -194.847702      -66.717125
 H         -72.302689     -192.048431      -67.721588
 H         -73.840538     -192.246643      -66.894272
 H         -74.236565     -195.686661      -68.664856
 H         -72.612503     -195.750870      -67.912422
 H         -72.719704     -193.667953      -69.292740
 H         -74.364342     -193.446823      -68.726196
