20
 generated by VMD
 C          -1.720599      -13.002272        0.587023
 N          -1.098102      -13.877145        0.882498
 H          -3.717051      -14.660542        1.817243
 H          -4.500372      -14.524645        0.282397
 C          -4.547717      -15.034022        1.220393
 C          -5.831212      -14.780214        1.940710
 C          -4.450158      -16.569998        0.966428
 C          -7.097993      -15.278073        1.275765
 C          -5.658613      -17.131140        0.246482
 C          -6.980141      -16.764271        0.941288
 H          -5.985161      -13.723551        2.133405
 H          -5.878412      -15.380335        2.902207
 H          -3.509686      -16.804150        0.403621
 H          -4.324408      -17.106739        1.981843
 H          -7.328608      -14.678764        0.409321
 H          -7.846940      -15.122737        2.027592
 H          -5.610512      -18.222784        0.187650
 H          -5.735950      -16.736233       -0.741833
 H          -7.806172      -16.995445        0.235003
 H          -7.086986      -17.432137        1.791905
