20
 generated by VMD
 C          -3.422757      -17.385252        2.293176
 N          -3.230391      -18.380869        1.826873
 H          -5.586189      -20.277618        0.692515
 H          -5.838200      -20.739126       -0.991611
 C          -6.024636      -19.971348       -0.241662
 C          -5.388548      -18.639526       -0.758660
 C          -7.531769      -19.768356        0.051375
 C          -6.159108      -18.179453       -2.025823
 C          -8.282890      -19.428854       -1.224369
 C          -7.729664      -18.155239       -1.724874
 H          -4.368222      -18.728233       -1.062750
 H          -5.360027      -17.875753        0.067868
 H          -7.954463      -20.646727        0.533374
 H          -7.775417      -19.085226        0.828849
 H          -5.877215      -18.707083       -2.975405
 H          -5.817932      -17.160240       -2.277812
 H          -9.347749      -19.328136       -0.948086
 H          -8.259056      -20.246067       -2.017421
 H          -8.277867      -17.771210       -2.597391
 H          -7.843137      -17.401321       -0.966611
