20
 generated by VMD
 C         -66.367737     -177.930344      -56.911922
 N         -67.531677     -177.801468      -57.000977
 H         -64.510956     -176.148056      -59.314926
 H         -65.294006     -178.066071      -56.821560
 C         -64.343491     -174.993622      -59.485958
 C         -65.518707     -174.112350      -59.186150
 C         -63.228302     -174.575684      -60.417503
 C         -65.267082     -172.674728      -59.244907
 C         -62.996700     -172.955978      -60.375889
 C         -64.348183     -172.159973      -60.292759
 H         -65.810944     -174.345886      -58.217411
 H         -66.409645     -174.314377      -59.887417
 H         -62.302799     -175.053070      -60.284431
 H         -63.584286     -174.642578      -61.403889
 H         -65.006973     -172.378113      -58.244923
 H         -66.245941     -172.189377      -59.343388
 H         -62.413548     -172.500900      -61.278793
 H         -62.407860     -172.894440      -59.505718
 H         -64.224182     -171.028076      -60.301369
 H         -64.666306     -172.396240      -61.305000
