20
 generated by VMD
 C         -24.586498      -70.026649      -16.462130
 N         -24.556519      -70.559090      -15.417049
 H         -23.592077      -67.324112      -19.051966
 H         -24.347071      -69.531364      -17.438293
 C         -24.292459      -67.909637      -19.641283
 C         -23.782717      -68.735672      -20.793621
 C         -25.752090      -67.899017      -19.564304
 C         -24.758205      -69.892433      -21.197788
 C         -26.610312      -69.055649      -19.932585
 C         -26.261135      -69.572136      -21.276829
 H         -22.731197      -69.025070      -20.648424
 H         -23.705988      -68.192955      -21.761332
 H         -26.120829      -67.522263      -18.524471
 H         -25.952625      -67.080986      -20.288465
 H         -24.861523      -70.723801      -20.475904
 H         -24.564997      -70.231224      -22.187006
 H         -27.558064      -68.665611      -19.815058
 H         -26.610146      -69.760574      -19.197496
 H         -26.910316      -70.428154      -21.528200
 H         -26.339989      -68.903603      -22.147938
