20
 generated by VMD
 C         -60.957916     -154.774063      -51.352726
 N         -60.945648     -154.087280      -52.251472
 H         -57.451965     -153.971069      -53.014523
 H         -60.866268     -155.407791      -50.518845
 C         -56.706703     -153.690887      -52.237572
 C         -57.175285     -153.965118      -50.857712
 C         -55.510128     -152.862854      -52.486637
 C         -56.098431     -154.332993      -49.790428
 C         -54.398861     -153.393097      -51.443535
 C         -54.968498     -153.381088      -49.942692
 H         -58.062988     -154.698822      -50.875622
 H         -57.691460     -153.023041      -50.408188
 H         -55.229183     -152.890808      -53.513577
 H         -55.756912     -151.803116      -52.218586
 H         -55.790222     -155.365173      -49.785614
 H         -56.681103     -154.255234      -48.835938
 H         -53.541924     -152.734329      -51.577930
 H         -54.040413     -154.420090      -51.778244
 H         -54.128841     -153.465942      -49.149555
 H         -55.460548     -152.450180      -49.772770
