20
 generated by VMD
 C         -74.954178     -201.854599      -66.450699
 N         -74.442810     -201.244095      -65.591118
 H         -76.346123     -199.219727      -68.837479
 H         -75.160454     -202.414124      -67.387695
 C         -75.428551     -198.716675      -69.038635
 C         -74.971291     -197.464188      -68.283943
 C         -74.371361     -199.420074      -69.904381
 C         -73.467361     -197.237778      -68.023338
 C         -73.261955     -198.387894      -70.288544
 C         -72.473030     -197.793793      -69.010445
 H         -75.447151     -197.468216      -67.279037
 H         -75.261612     -196.634491      -68.762444
 H         -73.991417     -200.323257      -69.412941
 H         -74.875977     -199.741684      -70.785255
 H         -73.078987     -197.446548      -67.054634
 H         -73.235023     -196.145691      -68.052216
 H         -73.837700     -197.592072      -70.677162
 H         -72.499535     -198.778656      -71.004181
 H         -71.896133     -198.518143      -68.515190
 H         -71.774261     -197.106583      -69.552460
