20
 generated by VMD
 C         -47.972530     -134.518646      -47.075619
 N         -47.992237     -133.995544      -48.064827
 H         -49.915241     -134.413040      -44.675369
 H         -47.821049     -134.952316      -46.128807
 C         -50.445930     -135.271179      -44.144794
 C         -50.749809     -136.440445      -44.968464
 C         -51.140381     -135.062805      -42.845531
 C         -50.795841     -137.730652      -44.160675
 C         -51.277725     -136.386078      -42.053158
 C         -51.780708     -137.460266      -42.922825
 H         -50.035141     -136.668335      -45.833885
 H         -51.700523     -136.352234      -45.410194
 H         -50.592495     -134.289993      -42.280922
 H         -52.153847     -134.663467      -42.893749
 H         -49.749912     -138.030167      -43.950764
 H         -51.274464     -138.523071      -44.787228
 H         -51.952171     -136.188599      -41.164703
 H         -50.271881     -136.616333      -41.697800
 H         -52.036419     -138.410980      -42.453220
 H         -52.830353     -137.163269      -43.399490
