20
 generated by VMD
 C         -20.383953      -61.819363      -17.539293
 N         -19.570980      -61.401546      -16.856012
 H         -21.825935      -65.355186      -16.666794
 H         -21.287081      -61.999725      -18.264711
 C         -22.807686      -65.021835      -17.020491
 C         -23.070845      -64.310593      -18.226133
 C         -23.941059      -65.290184      -15.964040
 C         -24.437088      -64.710953      -18.873394
 C         -25.251537      -65.598213      -16.749821
 C         -25.583174      -64.701515      -17.895550
 H         -22.309645      -64.593201      -18.972427
 H         -23.103453      -63.145317      -18.129133
 H         -23.491087      -66.164040      -15.587979
 H         -24.022173      -64.406097      -15.285555
 H         -24.334066      -65.737877      -19.362049
 H         -24.585358      -64.026321      -19.727722
 H         -26.165506      -65.688530      -16.101871
 H         -25.194185      -66.678185      -17.061934
 H         -26.514805      -64.819366      -18.424656
 H         -25.704762      -63.611942      -17.511034
