20
 generated by VMD
 C         -59.841160     -156.977921      -56.645287
 N         -60.975014     -156.555054      -56.576374
 H         -59.579666     -157.327881      -53.454395
 H         -58.835529     -157.384247      -56.541531
 C         -58.982269     -157.883682      -52.652809
 C         -57.789280     -157.172882      -52.257801
 C         -59.025898     -159.360550      -52.449150
 C         -57.332409     -157.523651      -50.757877
 C         -58.491474     -159.755035      -51.123230
 C         -57.195457     -159.068985      -50.800007
 H         -57.946598     -156.127838      -52.197372
 H         -56.963509     -157.296814      -53.012138
 H         -60.058128     -159.827728      -52.468609
 H         -58.450401     -159.639618      -53.355370
 H         -57.983189     -156.925507      -49.992752
 H         -56.343880     -157.028885      -50.633698
 H         -58.242626     -160.785172      -51.139511
 H         -59.185032     -159.727554      -50.345001
 H         -56.725620     -159.519684      -49.834667
 H         -56.436314     -159.332031      -51.523090
