20
 generated by VMD
 C         -70.765663     -198.796890      -64.370941
 N         -70.172058     -198.442719      -65.290031
 H         -72.264778     -196.448486      -66.828545
 H         -71.037994     -199.151794      -63.407825
 C         -73.180664     -195.909912      -67.023697
 C         -73.279442     -194.487183      -66.587440
 C         -74.012398     -196.417740      -68.186104
 C         -73.235107     -193.505600      -67.732208
 C         -74.807007     -195.248459      -68.794998
 C         -73.986275     -193.989182      -68.994377
 H         -72.554054     -194.125488      -65.824013
 H         -74.223656     -194.398697      -66.204971
 H         -73.315407     -196.856750      -68.933098
 H         -74.720955     -197.090485      -67.620186
 H         -72.226265     -193.170242      -68.021896
 H         -73.678642     -192.511292      -67.404495
 H         -75.734032     -195.237717      -68.183784
 H         -75.051369     -195.527878      -69.830070
 H         -73.409325     -194.075195      -69.900154
 H         -74.904427     -193.302490      -69.315521
