20
 generated by VMD
 C         -59.554092     -169.275711      -55.790680
 N         -59.738785     -168.558319      -54.855808
 H         -63.169483     -170.158630      -56.174599
 H         -59.320457     -170.048691      -56.530602
 C         -63.000984     -169.182526      -56.583530
 C         -62.777840     -168.873367      -58.098476
 C         -63.308475     -168.094070      -55.567944
 C         -63.540070     -167.590073      -58.603893
 C         -64.067780     -166.848373      -56.214035
 C         -63.617683     -166.488281      -57.574814
 H         -63.088013     -169.898132      -58.591724
 H         -61.756786     -168.858856      -58.306927
 H         -63.993942     -168.283630      -54.628963
 H         -62.360916     -167.595551      -55.150444
 H         -64.526741     -167.907593      -58.855396
 H         -63.051159     -167.251678      -59.497147
 H         -64.049294     -165.928009      -55.601498
 H         -65.126923     -167.209641      -56.056557
 H         -64.196136     -165.588943      -57.930771
 H         -62.584072     -166.123520      -57.589909
