20
 generated by VMD
 C         -30.475597      -75.539032      -22.648064
 N         -31.362803      -75.064133      -22.049583
 H         -28.457203      -78.151649      -21.157282
 H         -29.741121      -75.886436      -23.268167
 C         -27.753017      -77.398643      -21.534821
 C         -26.760761      -78.024178      -22.465515
 C         -27.723097      -76.135239      -20.692856
 C         -25.875374      -76.849129      -23.020899
 C         -26.838476      -75.105896      -21.498274
 C         -25.487135      -75.836914      -21.935659
 H         -27.366932      -78.399902      -23.302589
 H         -26.160736      -78.804558      -21.849575
 H         -28.729242      -75.702965      -20.386736
 H         -27.287504      -76.290398      -19.722223
 H         -26.213425      -76.271339      -23.893476
 H         -24.983690      -77.412369      -23.337761
 H         -26.494640      -74.188690      -20.859705
 H         -27.278469      -74.641602      -22.415476
 H         -24.767942      -75.154160      -22.416664
 H         -25.005507      -76.348152      -21.113907
