20
 generated by VMD
 C         -47.657463     -136.680573      -45.931477
 N         -46.943699     -136.116989      -46.736931
 H         -51.091103     -135.488831      -45.698334
 H         -48.028408     -137.095642      -45.005806
 C         -51.354164     -136.475052      -45.257736
 C         -51.983356     -137.502167      -46.124756
 C         -51.967274     -136.368408      -43.864403
 C         -51.996452     -138.866364      -45.437027
 C         -51.900108     -137.736786      -43.183102
 C         -52.645878     -138.839172      -44.054810
 H         -51.660011     -137.608658      -47.184055
 H         -53.053532     -137.146500      -46.277218
 H         -51.480827     -135.520035      -43.309551
 H         -52.972862     -135.979752      -43.964447
 H         -51.026226     -139.290268      -45.242924
 H         -52.673996     -139.538666      -46.121834
 H         -52.293533     -137.702042      -42.133499
 H         -50.804161     -138.110031      -43.173512
 H         -52.674599     -139.802048      -43.459591
 H         -53.738739     -138.505051      -44.040562
