20
 generated by VMD
 C         -50.003571     -144.170456      -44.327267
 N         -49.292439     -143.752319      -45.150230
 H         -52.386223     -141.612732      -45.612793
 H         -50.770668     -144.556076      -43.635521
 C         -52.939022     -141.939468      -46.513718
 C         -52.259754     -141.982986      -47.932724
 C         -54.354622     -141.432404      -46.349941
 C         -53.228947     -142.420776      -49.046410
 C         -55.195934     -141.967911      -47.441074
 C         -54.544468     -141.733978      -48.830650
 H         -51.296593     -142.639069      -47.863724
 H         -51.871342     -140.934677      -48.230621
 H         -54.944160     -141.692673      -45.403694
 H         -54.431095     -140.338516      -46.451973
 H         -53.446182     -143.498566      -48.946732
 H         -52.777714     -142.252655      -50.005062
 H         -56.162815     -141.386566      -47.384335
 H         -55.396572     -143.061554      -47.349098
 H         -55.234592     -142.178360      -49.556808
 H         -54.581505     -140.639267      -48.968410
