20
 generated by VMD
 C         -23.431923      -53.224869      -13.098321
 N         -23.205496      -52.610359      -14.075466
 H         -20.593164      -54.858536      -14.357594
 H         -23.565300      -53.488197      -11.925817
 C         -19.502224      -54.711243      -14.099684
 C         -18.948793      -53.328503      -14.088499
 C         -18.550337      -55.900520      -13.908408
 C         -17.867641      -53.190212      -13.031733
 C         -17.131485      -55.630760      -13.411166
 C         -16.706804      -54.181522      -13.313582
 H         -19.753950      -52.693256      -13.866376
 H         -18.445637      -53.114319      -15.008872
 H         -19.068693      -56.624641      -13.210716
 H         -18.536520      -56.376526      -14.858809
 H         -18.273733      -53.362034      -12.030451
 H         -17.484955      -52.141285      -13.062876
 H         -16.445181      -56.199211      -14.127954
 H         -16.949442      -56.135773      -12.475037
 H         -15.955425      -54.020939      -12.502336
 H         -16.306242      -53.945881      -14.305508
