20
 generated by VMD
 C         -11.513182      -33.719456       -8.451689
 N         -10.818719      -33.516563       -9.264754
 H         -11.583080      -36.934921       -8.073054
 H         -11.998524      -36.075390       -6.616502
 C         -12.265052      -36.930721       -7.208101
 C         -11.960999      -38.329739       -6.566470
 C         -13.761362      -36.915951       -7.639751
 C         -12.949145      -38.581161       -5.356439
 C         -14.724234      -37.207638       -6.520055
 C         -14.415391      -38.507656       -5.766964
 H         -10.932483      -38.344036       -6.146774
 H         -12.131537      -39.156208       -7.278203
 H         -13.982691      -35.857635       -7.962537
 H         -13.874650      -37.622784       -8.432389
 H         -12.783567      -37.810051       -4.537252
 H         -12.719827      -39.584305       -5.012572
 H         -15.782220      -37.295227       -6.960493
 H         -14.779071      -36.391201       -5.854190
 H         -15.059359      -38.639225       -4.890910
 H         -14.744879      -39.302582       -6.454296
