20
 generated by VMD
 C         -38.332169     -112.761711      -36.092312
 N         -37.414017     -112.343582      -36.631218
 H         -41.263813     -114.926804      -34.869476
 H         -39.005291     -113.339035      -35.547512
 C         -42.102386     -114.588310      -35.363888
 C         -42.076015     -114.638542      -36.844585
 C         -43.232399     -113.943710      -34.746540
 C         -43.378262     -114.855789      -37.586308
 C         -44.576042     -114.113441      -35.428036
 C         -44.488159     -113.966217      -36.888702
 H         -41.324093     -115.360832      -37.220623
 H         -41.630478     -113.666878      -37.276466
 H         -43.317768     -114.120033      -33.686226
 H         -42.795124     -112.943840      -34.687973
 H         -43.637543     -115.917320      -37.576668
 H         -43.355370     -114.569382      -38.666489
 H         -45.264454     -113.254440      -35.115093
 H         -45.089687     -115.080009      -35.166832
 H         -45.513054     -114.256798      -37.381863
 H         -44.193825     -112.955811      -37.223576
