20
 generated by VMD
 C         -79.167625     -206.791489      -75.350128
 N         -79.133469     -207.120972      -76.482445
 H         -78.945930     -209.653793      -72.742447
 H         -79.134842     -206.213852      -74.422371
 C         -78.083511     -210.029755      -72.193970
 C         -76.871010     -209.179947      -72.073746
 C         -78.372482     -211.061905      -71.201523
 C         -76.915611     -208.521759      -70.774246
 C         -78.272186     -210.446381      -69.803589
 C         -76.990044     -209.436020      -69.690071
 H         -76.659859     -208.538116      -72.917488
 H         -76.090767     -209.926392      -72.080887
 H         -79.333298     -211.588593      -71.203362
 H         -77.587593     -211.812439      -71.351204
 H         -77.810394     -207.875412      -70.676994
 H         -76.038589     -207.914154      -70.546379
 H         -78.178688     -211.291229      -69.210732
 H         -79.215385     -209.865189      -69.584564
 H         -77.234421     -208.834183      -68.758080
 H         -76.031517     -209.967285      -69.557449
