20
 generated by VMD
 C         -31.702616      -78.906586      -26.470572
 N         -31.016756      -78.045425      -26.876213
 H         -28.883381      -80.494507      -24.983290
 H         -32.487217      -79.584770      -26.039116
 C         -28.817186      -81.156303      -24.167351
 C         -27.595804      -81.004196      -23.246632
 C         -29.962658      -82.132225      -23.771593
 C         -27.939651      -81.122307      -21.831059
 C         -30.195549      -82.149506      -22.253540
 C         -28.869322      -82.422668      -21.517229
 H         -27.069891      -80.080765      -23.569847
 H         -26.999216      -81.908127      -23.577463
 H         -30.860882      -81.894577      -24.226736
 H         -29.551218      -83.077332      -24.201323
 H         -28.510931      -80.260361      -21.611155
 H         -26.997505      -81.097816      -21.190432
 H         -30.905056      -82.961975      -21.964838
 H         -30.704533      -81.274551      -22.055746
 H         -29.076895      -82.550529      -20.440502
 H         -28.419691      -83.371330      -21.884443
