20
 generated by VMD
 C         -79.318489     -204.650696      -70.767754
 N         -80.351364     -205.190674      -70.738014
 H         -76.832336     -203.290253      -69.052849
 H         -78.322472     -204.126633      -70.905289
 C         -75.799805     -203.015442      -69.257904
 C         -75.654739     -202.022278      -70.363106
 C         -74.791351     -204.066360      -68.835121
 C         -74.256439     -201.534164      -70.437538
 C         -73.343582     -203.670090      -69.143860
 C         -73.149689     -202.625641      -70.271179
 H         -76.331505     -201.115265      -70.145126
 H         -76.014786     -202.430801      -71.289108
 H         -74.831017     -204.140167      -67.757751
 H         -75.058495     -204.890350      -69.489716
 H         -74.128143     -200.740662      -69.631310
 H         -74.014595     -201.005371      -71.401642
 H         -72.874161     -204.512131      -69.545853
 H         -72.779823     -203.282913      -68.249168
 H         -72.245270     -202.004959      -70.030205
 H         -73.095963     -203.231079      -71.146248
