20
 generated by VMD
 C         -57.889927     -164.472549      -56.648193
 N         -57.247799     -163.610596      -57.174522
 H         -60.480713     -163.971298      -53.737118
 H         -58.608154     -165.158752      -56.188892
 C         -60.883030     -164.775345      -54.446358
 C         -61.902611     -165.831512      -53.889534
 C         -61.287571     -164.395721      -55.869995
 C         -63.304169     -165.231613      -53.762760
 C         -62.750893     -163.952011      -56.053951
 C         -63.671055     -164.773483      -55.153408
 H         -61.574078     -166.143600      -52.830132
 H         -61.888065     -166.618530      -54.648407
 H         -60.752956     -163.602295      -56.308311
 H         -61.033459     -165.324677      -56.520996
 H         -63.413441     -164.399963      -53.007019
 H         -64.085365     -165.943344      -53.334480
 H         -63.078987     -164.122635      -56.998821
 H         -62.828838     -162.844376      -55.681995
 H         -64.707260     -164.374191      -55.114826
 H         -63.763245     -165.757263      -55.633003
