20
 generated by VMD
 C          -1.889110      -16.789524        2.874382
 N          -2.245849      -15.982650        2.185853
 H          -4.301477      -15.850376       -0.169500
 H          -4.677945      -17.139446       -1.257522
 C          -5.089750      -16.578705       -0.411136
 C          -6.320227      -15.956596       -0.960641
 C          -5.286692      -17.548887        0.716339
 C          -7.448083      -16.888990       -1.224687
 C          -6.415802      -18.609402        0.329079
 C          -7.730376      -17.908619       -0.103190
 H          -6.058614      -15.425704       -1.875002
 H          -6.707823      -15.208052       -0.219368
 H          -4.356511      -18.118822        1.009585
 H          -5.797892      -17.073217        1.560966
 H          -7.218665      -17.436789       -2.089960
 H          -8.373022      -16.325592       -1.314134
 H          -6.616262      -19.232065        1.174208
 H          -5.986302      -19.253023       -0.470805
 H          -8.420431      -18.702827       -0.491279
 H          -8.290988      -17.397655        0.698234
