20
 generated by VMD
 C         -31.318665      -75.588264      -23.576065
 N         -30.910929      -76.070702      -24.568058
 H         -29.607603      -78.515213      -21.973181
 H         -31.680197      -75.050240      -22.562626
 C         -28.554913      -78.179070      -21.903242
 C         -27.595144      -78.325157      -23.100151
 C         -27.891352      -78.092506      -20.582489
 C         -26.381918      -77.383362      -23.090082
 C         -26.835400      -76.965889      -20.485447
 C         -25.761269      -77.139015      -21.663540
 H         -28.101606      -78.237450      -24.004793
 H         -27.128328      -79.298866      -22.941721
 H         -28.542307      -77.854362      -19.735214
 H         -27.364847      -79.080894      -20.253878
 H         -26.686529      -76.415367      -23.533846
 H         -25.713184      -77.807640      -23.870127
 H         -26.349808      -77.180855      -19.554132
 H         -27.275543      -75.999146      -20.574110
 H         -25.078758      -76.319252      -21.617620
 H         -24.988297      -77.974342      -21.426701
