20
 generated by VMD
 C         -49.549137     -127.709335      -39.984402
 N         -50.484818     -127.629150      -40.661602
 H         -47.505989     -127.446152      -41.988190
 H         -48.533489     -127.722115      -39.631416
 C         -46.867241     -126.708115      -41.478043
 C         -45.762505     -127.267937      -40.475906
 C         -46.769188     -125.234421      -41.784851
 C         -44.415623     -126.573227      -40.516342
 C         -45.360493     -124.544922      -41.731857
 C         -44.553497     -125.029640      -40.564178
 H         -45.591194     -128.342178      -40.623005
 H         -46.325233     -127.315186      -39.479729
 H         -47.225330     -124.980362      -42.739487
 H         -47.379463     -124.681427      -41.124496
 H         -43.636337     -126.790634      -41.234535
 H         -43.990879     -126.836037      -39.531864
 H         -45.328541     -123.409332      -41.639427
 H         -44.762230     -124.826332      -42.595631
 H         -43.514328     -124.638077      -40.582134
 H         -45.029972     -124.880898      -39.643581
