20
 generated by VMD
 C         -73.981575     -201.332626      -65.626427
 N         -72.957329     -200.953766      -66.061913
 H         -75.871651     -198.322067      -67.416260
 H         -74.918747     -201.720016      -65.257812
 C         -75.174950     -197.827454      -68.110886
 C         -74.929588     -196.423737      -67.955521
 C         -74.459419     -198.605179      -69.122086
 C         -73.458076     -195.941650      -68.440407
 C         -73.393997     -197.909393      -69.942230
 C         -72.581276     -196.984940      -69.023476
 H         -74.865868     -196.144516      -66.798576
 H         -75.652824     -195.745590      -68.406616
 H         -73.934509     -199.448380      -68.709648
 H         -75.236435     -198.978958      -69.750702
 H         -72.965660     -195.403214      -67.549248
 H         -73.588104     -195.150940      -69.169609
 H         -73.904167     -197.338669      -70.774269
 H         -72.783669     -198.667404      -70.526794
 H         -72.120537     -197.555771      -68.162483
 H         -71.736885     -196.604691      -69.624992
