20
 generated by VMD
 C         -37.989960      -98.799469      -27.402826
 N         -37.612965      -98.561287      -26.333929
 H         -36.450573      -97.240494      -29.070675
 H         -38.397160      -98.888672      -28.390581
 C         -35.875729      -96.707031      -29.855202
 C         -35.564468      -97.340683      -31.204655
 C         -34.787891      -95.831604      -29.180063
 C         -34.636917      -96.477249      -32.092445
 C         -34.156994      -94.873840      -30.144844
 C         -33.603619      -95.574562      -31.393358
 H         -36.486904      -97.658089      -31.707548
 H         -35.110294      -98.322594      -31.019848
 H         -35.197975      -95.154793      -28.401669
 H         -34.016148      -96.445587      -28.647095
 H         -35.361305      -95.916382      -32.751385
 H         -34.037586      -97.160728      -32.699379
 H         -33.400639      -94.234970      -29.657213
 H         -34.959099      -94.112411      -30.415071
 H         -33.238743      -94.826004      -32.183945
 H         -32.879498      -96.299721      -31.229912
