20
 generated by VMD
 C          -9.373954      -24.850161        0.746180
 N         -10.141918      -25.404781        1.355502
 H          -6.874018      -23.116219       -0.601485
 H          -8.192744      -22.583672       -1.496638
 C          -7.241650      -23.034300       -1.639635
 C          -7.307559      -24.379143       -2.320843
 C          -6.442974      -22.083199       -2.551667
 C          -8.097655      -24.242132       -3.656241
 C          -7.115429      -21.962053       -3.827103
 C          -7.367534      -23.248734       -4.541459
 H          -7.946454      -25.106844       -1.639892
 H          -6.345485      -24.798677       -2.639059
 H          -6.298284      -21.096189       -2.088243
 H          -5.456639      -22.541254       -2.665728
 H          -9.078520      -23.837210       -3.465612
 H          -8.076679      -25.215448       -4.163596
 H          -6.486415      -21.391829       -4.493347
 H          -8.028697      -21.370178       -3.675713
 H          -7.969805      -23.082859       -5.437372
 H          -6.415925      -23.615814       -4.976480
