20
 generated by VMD
 C         -40.836605     -104.039734      -36.821960
 N         -41.270668     -104.947441      -36.260220
 H         -39.132607     -105.220383      -34.103447
 H         -40.633621     -103.122803      -37.298435
 C         -38.839127     -106.029007      -33.349499
 C         -37.605373     -105.971306      -32.617855
 C         -39.647705     -107.285210      -33.375229
 C         -37.645973     -106.741684      -31.239590
 C         -39.457436     -108.047951      -32.088768
 C         -38.066650     -108.215286      -31.493052
 H         -37.491711     -104.974335      -32.332001
 H         -36.897179     -106.360298      -33.383823
 H         -40.747673     -107.167488      -33.370632
 H         -39.388657     -107.738937      -34.365246
 H         -38.458004     -106.336044      -30.557556
 H         -36.620659     -106.762978      -30.763945
 H         -39.749096     -109.121002      -32.377979
 H         -40.159863     -107.808311      -31.270987
 H         -38.027294     -108.782700      -30.575159
 H         -37.461628     -108.733238      -32.302876
