20
 generated by VMD
 C         -78.951675     -207.402664      -75.299461
 N         -79.995461     -206.965302      -75.673134
 H         -77.728424     -209.079651      -73.462296
 H         -78.021080     -207.985260      -75.043320
 C         -77.618645     -209.044479      -72.352501
 C         -76.386635     -208.385803      -71.732552
 C         -78.249664     -210.118835      -71.519135
 C         -76.496368     -208.112640      -70.231392
 C         -78.208038     -209.895950      -69.996429
 C         -76.792870     -209.404770      -69.496185
 H         -76.260841     -207.478134      -72.345154
 H         -75.521782     -209.001373      -71.982674
 H         -79.222580     -210.395889      -71.902702
 H         -77.642357     -211.083084      -71.530876
 H         -77.093704     -207.194275      -69.897278
 H         -75.462791     -207.918945      -69.838417
 H         -78.561325     -210.824112      -69.496284
 H         -79.024185     -209.137039      -69.816307
 H         -76.740440     -209.108047      -68.467598
 H         -76.153381     -210.263931      -69.699234
