20
 generated by VMD
 C         -39.105446     -116.091949      -35.266235
 N         -39.418694     -115.393776      -34.405128
 H         -41.405544     -115.687920      -37.358860
 H         -38.693420     -116.684364      -36.129662
 C         -42.419525     -115.846718      -37.469044
 C         -42.989437     -115.543755      -38.832840
 C         -43.297768     -115.706123      -36.262409
 C         -44.301239     -116.374947      -38.978844
 C         -44.791672     -116.231232      -36.451859
 C         -45.362911     -116.052521      -37.887909
 H         -42.200756     -115.830200      -39.605221
 H         -43.188950     -114.410782      -38.915302
 H         -42.968754     -116.284966      -35.395763
 H         -43.266193     -114.679436      -35.845497
 H         -43.975910     -117.417770      -38.965023
 H         -44.814358     -116.159050      -39.976555
 H         -45.485416     -115.793259      -35.685692
 H         -44.772923     -117.391068      -36.243061
 H         -46.185917     -116.597168      -38.025482
 H         -45.549381     -114.965759      -38.057468
