20
 generated by VMD
 C         -49.619236     -131.757874      -46.614567
 N         -50.125793     -132.606216      -47.326508
 H         -48.003220     -132.994431      -44.427841
 H         -49.411812     -131.253540      -45.686047
 C         -48.631374     -133.369049      -43.568020
 C         -49.444481     -134.508850      -44.018848
 C         -49.072685     -132.611389      -42.387932
 C         -49.546558     -135.470276      -42.863243
 C         -49.125305     -133.562607      -41.190178
 C         -49.909405     -134.918381      -41.498310
 H         -49.045376     -135.100952      -44.789536
 H         -50.426865     -134.138733      -44.332176
 H         -48.404869     -131.708176      -42.126011
 H         -50.126297     -132.248123      -42.674038
 H         -48.507488     -135.962616      -42.841473
 H         -50.240116     -136.356369      -42.983452
 H         -49.396278     -132.982803      -40.344570
 H         -48.146149     -133.858856      -40.915134
 H         -49.567879     -135.674362      -40.663811
 H         -50.937557     -134.628189      -41.591175
