20
 generated by VMD
 C         -23.684864      -69.121040      -16.584213
 N         -23.720200      -69.854729      -15.709455
 H         -23.965895      -66.426071      -18.959961
 H         -23.640091      -68.279037      -17.385458
 C         -24.453970      -67.286140      -19.479416
 C         -23.888390      -67.918961      -20.735128
 C         -25.967331      -67.243179      -19.267935
 C         -24.484039      -69.316315      -20.828884
 C         -26.499182      -68.600288      -19.323290
 C         -25.968784      -69.277046      -20.532475
 H         -22.871653      -68.091156      -20.559401
 H         -24.071287      -67.359314      -21.665308
 H         -26.148333      -66.796890      -18.268892
 H         -26.298605      -66.529762      -20.064846
 H         -23.933029      -69.913078      -20.051949
 H         -24.353806      -69.870872      -21.828711
 H         -27.652124      -68.488060      -19.300228
 H         -26.093718      -69.247292      -18.447433
 H         -26.385563      -70.301300      -20.528875
 H         -26.635904      -68.840057      -21.255613
