20
 generated by VMD
 C         -18.286268      -50.335751       -9.026193
 N         -19.370049      -50.106155       -9.174261
 H         -16.333342      -47.041088      -10.098730
 H         -17.390442      -48.416367      -10.288830
 C         -16.717901      -47.704411      -10.881860
 C         -15.555899      -48.391529      -11.603257
 C         -17.585119      -46.883087      -11.851554
 C         -16.089592      -49.312485      -12.668593
 C         -18.005825      -47.730228      -13.034873
 C         -16.935209      -48.595924      -13.729960
 H         -14.981364      -49.018280      -10.877316
 H         -14.773779      -47.643085      -11.917169
 H         -18.448360      -46.444920      -11.358502
 H         -17.027039      -46.035774      -12.223866
 H         -16.576916      -50.220524      -12.264846
 H         -15.254968      -49.748905      -13.204519
 H         -18.518223      -47.081074      -13.752589
 H         -18.755581      -48.447376      -12.750952
 H         -17.392563      -49.420120      -14.384186
 H         -16.330017      -47.899780      -14.398050
