20
 generated by VMD
 C         -60.711159     -153.614044      -51.547218
 N         -61.436539     -154.422668      -52.042614
 H         -57.578728     -153.915771      -52.233616
 H         -59.942417     -152.871094      -51.237778
 C         -56.782097     -153.470459      -51.653225
 C         -56.641960     -153.790131      -50.193455
 C         -55.883450     -152.405823      -52.197327
 C         -55.284142     -154.096817      -49.622128
 C         -54.441521     -152.501740      -51.657143
 C         -54.433983     -152.857498      -50.138054
 H         -57.246708     -154.702454      -49.992638
 H         -57.182293     -153.049011      -49.470314
 H         -55.810032     -152.573502      -53.260788
 H         -56.294197     -151.429184      -52.008755
 H         -54.905258     -154.982437      -50.027355
 H         -55.375946     -154.120636      -48.505085
 H         -53.947147     -151.613190      -51.908344
 H         -53.659534     -153.283386      -52.049355
 H         -53.315845     -152.990906      -49.882458
 H         -54.785198     -152.053635      -49.581657
