20
 generated by VMD
 C         -12.011496      -31.494278       -9.035639
 N         -12.684420      -32.165268       -9.666431
 H         -10.684966      -34.222679       -6.647958
 H         -11.642856      -33.852245       -5.214706
 C         -11.330584      -34.664024       -5.933256
 C         -10.554414      -35.829533       -5.285182
 C         -12.518626      -35.301647       -6.650443
 C         -11.528348      -36.546169       -4.269042
 C         -13.504575      -35.970890       -5.736740
 C         -12.894491      -37.065762       -4.878320
 H          -9.755027      -35.278641       -4.741324
 H         -10.166070      -36.546940       -6.043182
 H         -13.079466      -34.435158       -7.043865
 H         -12.354771      -36.015965       -7.449655
 H         -11.826544      -35.731319       -3.530526
 H         -10.976100      -37.392563       -3.804546
 H         -14.288576      -36.372864       -6.319245
 H         -13.937115      -35.190186       -4.981871
 H         -13.579724      -37.267319       -4.038241
 H         -12.820130      -37.988911       -5.372074
