20
 generated by VMD
 C         -67.762917     -178.024796      -57.773445
 N         -67.186714     -178.720703      -57.026012
 H         -64.815826     -176.487228      -59.048367
 H         -68.293144     -177.437653      -58.500271
 C         -64.563866     -175.469040      -59.428089
 C         -65.714142     -174.564560      -59.816986
 C         -63.328346     -175.117584      -60.238445
 C         -65.443253     -173.063400      -59.653870
 C         -63.004433     -173.724747      -60.107437
 C         -64.146942     -172.727554      -60.436340
 H         -66.600220     -174.777008      -59.267025
 H         -65.976814     -174.890686      -60.874546
 H         -62.615181     -175.859207      -60.038391
 H         -63.799305     -175.352905      -61.214973
 H         -65.175346     -172.901382      -58.648590
 H         -66.282150     -172.431900      -59.796150
 H         -62.044971     -173.575607      -60.631958
 H         -62.833248     -173.314911      -59.115631
 H         -63.986240     -171.659363      -60.315239
 H         -64.430878     -172.833099      -61.492882
