20
 generated by VMD
 C         -77.426521     -202.961639      -69.366234
 N         -77.627045     -203.726181      -68.552635
 H         -75.319717     -201.703506      -67.293587
 H         -77.229515     -202.119492      -69.977280
 C         -74.606041     -201.261246      -67.913506
 C         -75.200150     -200.045135      -68.501152
 C         -73.945015     -202.158173      -68.858414
 C         -74.625954     -199.521011      -69.843842
 C         -73.200035     -201.516678      -70.114609
 C         -74.141762     -200.555893      -70.838524
 H         -75.055275     -199.220718      -67.745773
 H         -76.262177     -200.183807      -68.635025
 H         -73.184494     -202.641571      -68.333138
 H         -74.574821     -202.993195      -69.130699
 H         -73.835396     -198.855118      -69.582970
 H         -75.308624     -198.768127      -70.236153
 H         -72.866814     -202.214371      -70.900337
 H         -72.327202     -200.919632      -69.790161
 H         -73.517509     -200.142044      -71.707932
 H         -74.864624     -201.202225      -71.328651
