20
 generated by VMD
 C         -50.687622     -129.600540      -45.692097
 N         -51.237610     -130.550568      -45.480537
 H         -48.352634     -131.039215      -43.996544
 H         -50.279167     -128.608398      -45.488480
 C         -48.137020     -130.957443      -42.886612
 C         -48.355244     -132.271057      -42.215050
 C         -47.917229     -129.698578      -42.126343
 C         -47.199726     -132.532089      -41.291763
 C         -46.746838     -129.935562      -41.094345
 C         -47.056412     -131.333389      -40.340317
 H         -48.396500     -133.120178      -43.028625
 H         -49.176163     -132.348511      -41.589485
 H         -47.690815     -128.932953      -42.853806
 H         -48.890793     -129.232925      -41.600998
 H         -46.267529     -132.561264      -41.875515
 H         -47.390102     -133.371124      -40.635704
 H         -46.663876     -128.971436      -40.474838
 H         -45.814613     -130.032181      -41.608177
 H         -46.213840     -131.434647      -39.702660
 H         -47.844307     -131.037994      -39.669788
