20
 generated by VMD
 C         -21.930641      -55.269745      -17.353483
 N         -22.158768      -55.538227      -18.499208
 H         -22.376696      -57.585350      -14.348459
 H         -21.959194      -54.965805      -16.164122
 C         -21.222197      -57.576435      -14.207943
 C         -20.977266      -58.308971      -12.823336
 C         -20.145611      -57.891815      -15.274188
 C         -20.738419      -59.878056      -13.075347
 C         -20.029604      -59.403522      -15.566467
 C         -19.856003      -60.254070      -14.289503
 H         -21.859930      -58.174725      -12.199815
 H         -20.116842      -57.845947      -12.345667
 H         -20.262104      -57.261662      -16.120298
 H         -19.138561      -57.615238      -14.837856
 H         -21.717264      -60.285160      -13.386564
 H         -20.521585      -60.480225      -12.155916
 H         -19.275446      -59.742496      -16.279236
 H         -20.986313      -59.783081      -16.021580
 H         -19.955305      -61.340923      -14.537864
 H         -18.834578      -60.142612      -13.825571
