20
 generated by VMD
 C         -66.831573     -177.877869      -57.033245
 N         -67.826141     -178.426743      -56.846970
 H         -64.151810     -176.091141      -59.174801
 H         -65.882401     -177.362701      -57.063526
 C         -64.271317     -175.034103      -59.587101
 C         -65.529526     -174.327148      -59.458061
 C         -63.127384     -174.588638      -60.472759
 C         -65.199722     -172.881790      -59.239582
 C         -62.959827     -173.009064      -60.411942
 C         -64.378426     -172.341370      -60.362404
 H         -66.094604     -174.686310      -58.568401
 H         -66.315483     -174.520905      -60.229481
 H         -62.189011     -175.073135      -60.168888
 H         -63.219646     -174.839066      -61.599430
 H         -64.861053     -172.504944      -58.227154
 H         -66.185425     -172.394516      -59.455246
 H         -62.309242     -172.555222      -61.199543
 H         -62.385551     -172.861115      -59.480194
 H         -64.271873     -171.219559      -60.239674
 H         -64.689644     -172.474365      -61.373352
