20
 generated by VMD
 C         -12.975201      -43.327393       -6.842863
 N         -12.822964      -42.240196       -6.932335
 H         -14.683232      -43.862656       -8.398059
 H         -14.659954      -42.554165       -9.696649
 C         -15.118106      -43.479954       -9.338712
 C         -16.554598      -43.226021       -8.986681
 C         -14.945973      -44.481041      -10.449843
 C         -17.171570      -42.547565      -10.218167
 C         -15.518158      -43.873974      -11.729042
 C         -16.954573      -43.389313      -11.496832
 H         -16.599388      -42.577896       -8.150511
 H         -17.083389      -44.113388       -8.643080
 H         -13.944201      -44.762035      -10.603593
 H         -15.552086      -45.371971      -10.249541
 H         -16.825905      -41.508671      -10.319319
 H         -18.262131      -42.519207      -10.106909
 H         -15.548673      -44.731918      -12.416068
 H         -14.861858      -43.100628      -12.149705
 H         -17.440393      -42.874432      -12.325827
 H         -17.574879      -44.322479      -11.324609
