20
 generated by VMD
 C         -13.781614      -43.743637       -6.754981
 N         -13.428512      -43.820065       -5.687161
 H         -14.808585      -45.048077       -8.933009
 H         -14.240251      -43.960594      -10.122348
 C         -15.130775      -44.514946       -9.891126
 C         -16.344299      -43.567104       -9.714062
 C         -15.555844      -45.491394      -10.952112
 C         -16.972898      -42.862492      -10.965252
 C         -16.034286      -44.787319      -12.218884
 C         -17.237295      -43.858856      -12.075194
 H         -15.971031      -42.765137       -8.981709
 H         -17.177113      -44.021637       -9.116693
 H         -14.839351      -46.296173      -11.216068
 H         -16.373644      -46.175659      -10.609138
 H         -16.300726      -42.099392      -11.353799
 H         -17.892977      -42.330891      -10.686035
 H         -16.194765      -45.647896      -12.994793
 H         -15.209578      -44.219227      -12.623281
 H         -17.429764      -43.259178      -12.963073
 H         -18.091927      -44.436958      -11.821229
