20
 generated by VMD
 C         -40.327457     -107.068611      -37.747955
 N         -39.250858     -106.613647      -37.886341
 H         -38.784382     -108.043968      -34.212334
 H         -41.295971     -107.515564      -37.963993
 C         -39.455303     -108.876884      -33.825104
 C         -38.894112     -110.159058      -33.426170
 C         -40.855019     -108.894608      -34.291885
 C         -39.683956     -110.731255      -32.278778
 C         -41.718784     -109.516464      -33.193729
 C         -41.140636     -110.924736      -32.701523
 H         -37.727577     -110.187981      -33.118298
 H         -38.982700     -110.830551      -34.356949
 H         -41.160774     -107.941208      -34.537086
 H         -40.860348     -109.560471      -35.161884
 H         -39.734142     -110.205467      -31.405144
 H         -39.141102     -111.712593      -32.197437
 H         -42.738480     -109.755325      -33.587318
 H         -41.901714     -108.770493      -32.483547
 H         -41.819225     -111.203056      -31.784018
 H         -41.264301     -111.648224      -33.445286
