20
 generated by VMD
 C         -21.926781      -55.582840      -17.660246
 N         -20.866280      -55.666557      -18.122013
 H         -21.815079      -57.278049      -14.895535
 H         -22.690615      -55.446564      -16.753431
 C         -21.779018      -58.327057      -14.647001
 C         -21.454140      -58.861717      -13.268151
 C         -21.517008      -59.193035      -15.786020
 C         -21.032709      -60.292454      -13.291714
 C         -20.234268      -60.061718      -15.638326
 C         -19.928263      -60.655792      -14.348358
 H         -22.463568      -58.881672      -12.729377
 H         -20.775646      -58.175865      -12.731378
 H         -22.363567      -59.863842      -15.672593
 H         -21.634266      -58.846733      -16.778162
 H         -21.900246      -60.911575      -13.331451
 H         -20.572815      -60.483154      -12.354576
 H         -19.347591      -59.554554      -16.077597
 H         -20.292347      -60.835743      -16.397194
 H         -20.052080      -61.789875      -14.478343
 H         -18.857426      -60.463108      -14.042159
