20
 generated by VMD
 C         -40.783302     -102.635643      -34.918304
 N         -41.489639     -102.398186      -35.806129
 H         -39.775906     -104.747498      -33.004086
 H         -39.921963     -102.877495      -34.374149
 C         -38.869015     -104.860184      -32.251144
 C         -37.720261     -104.026505      -32.824383
 C         -38.599831     -105.987213      -31.276323
 C         -36.385342     -103.906357      -32.012138
 C         -37.341240     -105.726639      -30.525774
 C         -36.179371     -105.250687      -31.402992
 H         -38.037739     -103.008835      -33.083775
 H         -37.315140     -104.479355      -33.711021
 H         -39.509380     -106.076546      -30.625906
 H         -38.379917     -107.039818      -31.672079
 H         -36.577171     -103.305557      -31.087566
 H         -35.484055     -103.509979      -32.583633
 H         -37.003674     -106.764427      -30.077091
 H         -37.404762     -105.048607      -29.656988
 H         -35.329491     -105.118828      -30.630611
 H         -35.796841     -105.970741      -32.083019
