20
 generated by VMD
 C         -43.261326     -121.192307      -35.571075
 N         -43.131409     -120.520119      -34.626381
 H         -44.384045     -121.967873      -38.818485
 H         -43.150188     -121.727028      -36.503445
 C         -44.525703     -120.917564      -39.188660
 C         -43.310589     -120.243591      -39.704365
 C         -45.487816     -120.085655      -38.543926
 C         -43.600414     -119.001114      -40.553837
 C         -45.922726     -118.844940      -39.365711
 C         -44.620472     -118.099335      -39.835175
 H         -42.719574     -120.931915      -40.444080
 H         -42.686619     -120.027588      -38.815121
 H         -46.445160     -120.601028      -38.239246
 H         -45.060097     -119.609718      -37.686478
 H         -44.039841     -119.306480      -41.472992
 H         -42.637619     -118.396873      -40.652119
 H         -46.606537     -118.101936      -38.925346
 H         -46.202793     -119.233315      -40.229012
 H         -44.783749     -117.288086      -40.558479
 H         -44.110359     -117.734825      -38.983051
