20
 generated by VMD
 C         -48.501682     -135.771194      -46.240658
 N         -47.694328     -136.108292      -45.414398
 H         -51.642422     -135.151703      -46.110424
 H         -49.152615     -135.513596      -47.111702
 C         -51.799068     -135.840866      -45.317581
 C         -52.472240     -137.130661      -45.561474
 C         -51.231510     -135.687256      -43.903534
 C         -51.597645     -138.327362      -45.157501
 C         -50.399399     -136.904572      -43.479313
 C         -51.225101     -138.216263      -43.700504
 H         -52.596241     -137.200928      -46.601768
 H         -53.478844     -137.254547      -45.038799
 H         -50.649094     -134.735718      -43.884739
 H         -52.000198     -135.565887      -43.146461
 H         -50.737457     -138.396545      -45.845726
 H         -52.127808     -139.268173      -45.390064
 H         -50.162445     -136.828293      -42.447880
 H         -49.396198     -137.018921      -43.977413
 H         -50.526146     -138.994736      -43.516159
 H         -52.103817     -138.144974      -43.171940
