20
 generated by VMD
 C         -59.492565     -152.003006      -49.383686
 N         -58.700619     -152.320267      -50.224915
 H         -56.661049     -150.880112      -49.044323
 H         -60.347786     -151.664658      -48.741684
 C         -55.704029     -150.495728      -49.120834
 C         -54.818493     -151.484726      -49.747643
 C         -55.379452     -148.981033      -49.190262
 C         -54.245453     -151.086792      -51.077301
 C         -54.835972     -148.647293      -50.583912
 C         -53.749329     -149.598816      -50.977600
 H         -55.139954     -152.522507      -49.779655
 H         -54.017048     -151.567047      -48.954399
 H         -56.380219     -148.474213      -49.083210
 H         -54.780140     -148.704727      -48.332756
 H         -55.062180     -151.111237      -51.795792
 H         -53.397976     -151.630127      -51.465069
 H         -54.391293     -147.592590      -50.412380
 H         -55.676544     -148.659805      -51.225914
 H         -53.588421     -149.252914      -52.054913
 H         -52.836826     -149.536774      -50.459263
