20
 generated by VMD
 C         -12.366187      -27.048742       -2.687548
 N         -12.963041      -27.754234       -2.059285
 H         -10.571358      -26.763103       -4.315164
 H          -9.206032      -26.101725       -5.271304
 C          -9.486251      -26.784189       -4.403472
 C          -9.014045      -28.234413       -4.386171
 C          -8.821432      -26.178009       -3.108171
 C          -7.494762      -28.246653       -4.575036
 C          -7.320876      -26.172758       -3.207010
 C          -6.838752      -27.646448       -3.309796
 H          -9.531842      -28.700117       -5.222227
 H          -9.388673      -28.890280       -3.531654
 H          -9.115136      -25.109558       -3.091712
 H          -9.276653      -26.575867       -2.164913
 H          -7.170250      -27.803623       -5.475080
 H          -7.143849      -29.253084       -4.675879
 H          -6.912962      -25.756144       -2.318050
 H          -6.894500      -25.612637       -4.056049
 H          -5.734657      -27.583347       -3.410277
 H          -7.108663      -28.184467       -2.377672
