20
 generated by VMD
 C         -40.078182     -100.855827      -31.699511
 N         -40.732536     -100.142059      -31.042570
 H         -37.523716     -103.568138      -31.619555
 H         -39.231865     -101.443787      -32.234184
 C         -36.863819     -102.688560      -31.671642
 C         -35.892727     -102.078331      -32.593517
 C         -36.775551     -102.142441      -30.266096
 C         -35.785927     -100.598938      -32.586277
 C         -36.168041     -100.784637      -30.121410
 C         -35.381241     -100.199066      -31.238781
 H         -36.225121     -102.259468      -33.632881
 H         -34.933323     -102.589806      -32.547821
 H         -37.806293     -102.132774      -29.981848
 H         -36.194843     -102.859055      -29.609608
 H         -36.597256     -100.072723      -32.903641
 H         -34.989048     -100.182655      -33.190613
 H         -35.566051     -100.653000      -29.094734
 H         -36.969265     -100.088722      -29.984404
 H         -35.378834      -99.130211      -31.278954
 H         -34.302017     -100.320587      -31.024696
