20
 generated by VMD
 C         -48.484764     -140.723190      -45.438351
 N         -47.342400     -140.538818      -45.449738
 H         -51.044586     -138.943207      -45.733177
 H         -49.589081     -140.694809      -45.402527
 C         -52.048775     -139.272736      -45.966919
 C         -52.468895     -139.392960      -47.485092
 C         -53.073158     -139.503098      -44.944534
 C         -53.418030     -140.549820      -47.749882
 C         -53.847103     -140.869080      -45.296852
 C         -54.433624     -140.849518      -46.728889
 H         -51.680386     -139.321167      -48.301800
 H         -53.035957     -138.436737      -47.650181
 H         -52.512959     -139.610474      -44.022438
 H         -53.728802     -138.648010      -44.881336
 H         -52.784008     -141.384537      -47.854351
 H         -53.981743     -140.477325      -48.600723
 H         -54.590797     -140.862869      -44.559361
 H         -53.145039     -141.712311      -45.110031
 H         -54.940491     -141.811234      -46.894344
 H         -55.193451     -139.997482      -46.924942
