20
 generated by VMD
 C         -56.144398     -149.325058      -45.903732
 N         -56.033134     -150.343460      -45.354797
 H         -53.756321     -147.922775      -47.707359
 H         -56.329033     -148.452469      -46.465618
 C         -54.033134     -147.440659      -48.697315
 C         -52.949928     -147.573853      -49.909428
 C         -54.787670     -146.119965      -48.523575
 C         -53.689877     -147.038254      -51.176579
 C         -55.295692     -145.600616      -49.914032
 C         -54.149933     -145.535736      -50.969185
 H         -52.537109     -148.554108      -49.988541
 H         -52.062607     -146.933304      -49.677479
 H         -55.580917     -146.166885      -47.831833
 H         -54.149433     -145.461151      -48.017529
 H         -54.590965     -147.537521      -51.456387
 H         -53.127911     -147.070206      -52.030857
 H         -55.816395     -144.665176      -49.738178
 H         -56.076138     -146.387512      -50.189434
 H         -54.492607     -144.960098      -51.894821
 H         -53.290447     -145.020844      -50.545876
