20
 generated by VMD
 C         -50.283550     -145.220016      -45.026325
 N         -49.871941     -144.698090      -44.091156
 H         -52.991554     -143.105179      -45.758224
 H         -50.472366     -145.679321      -45.955090
 C         -53.424988     -142.885971      -46.732414
 C         -52.508606     -142.851974      -48.092922
 C         -54.699974     -142.069717      -46.829117
 C         -53.355717     -143.075165      -49.356945
 C         -55.386070     -142.270813      -48.160526
 C         -54.553665     -142.086380      -49.385979
 H         -51.614578     -143.612747      -48.093796
 H         -52.106949     -141.819565      -48.101158
 H         -55.400265     -142.514908      -46.067524
 H         -54.327297     -141.015976      -46.527756
 H         -53.772907     -144.180573      -49.297550
 H         -52.774853     -142.955170      -50.360630
 H         -56.151554     -141.433014      -48.190994
 H         -55.993477     -143.185806      -48.125198
 H         -55.021290     -142.431534      -50.346272
 H         -54.237259     -140.968964      -49.540447
