20
 generated by VMD
 C          -1.754354       -8.622701        0.360645
 N          -2.257838       -9.181366       -0.488659
 H          -2.717117      -10.115848        2.665698
 H          -1.982228      -11.382301        3.708184
 C          -2.871340      -11.137368        3.064887
 C          -2.916596      -12.275659        1.968845
 C          -4.119645      -11.132010        3.972772
 C          -3.262393      -13.629658        2.564810
 C          -4.428603      -12.506561        4.478319
 C          -4.566608      -13.571815        3.333511
 H          -1.931006      -12.404862        1.497084
 H          -3.621198      -12.075314        1.177508
 H          -3.938092      -10.370845        4.715930
 H          -4.881808      -10.713449        3.398075
 H          -2.505104      -13.948118        3.286863
 H          -3.315963      -14.399178        1.817915
 H          -5.361465      -12.503282        5.073867
 H          -3.637944      -12.838518        5.150588
 H          -4.720933      -14.549463        3.889634
 H          -5.497009      -13.485427        2.697579
