20
 generated by VMD
 C         -22.658457      -54.832935      -16.264828
 N         -23.665213      -55.327072      -15.936842
 H         -19.032265      -54.733887      -15.184794
 H         -21.700272      -54.302769      -16.502071
 C         -19.269386      -55.691044      -14.837099
 C         -19.485138      -55.527531      -13.342014
 C         -18.672840      -56.910450      -15.386173
 C         -19.665342      -56.758095      -12.527168
 C         -19.485235      -58.173424      -14.740443
 C         -19.403954      -58.159203      -13.137671
 H         -20.285225      -54.789925      -13.161695
 H         -18.587753      -54.959141      -13.002322
 H         -18.848866      -57.003971      -16.433323
 H         -17.607439      -56.997662      -15.203968
 H         -20.701567      -56.767040      -12.211678
 H         -18.994368      -56.670620      -11.628633
 H         -19.109589      -59.079002      -15.161548
 H         -20.548271      -58.288223      -15.088282
 H         -20.142347      -58.855721      -12.756820
 H         -18.391487      -58.554050      -12.907543
