20
 generated by VMD
 C         -50.000637     -131.236389      -46.563694
 N         -50.326458     -131.531967      -47.687935
 H         -48.189522     -132.099808      -43.987904
 H         -50.150848     -130.648819      -45.618279
 C         -48.835690     -132.296875      -43.190742
 C         -49.614174     -133.602142      -43.174023
 C         -48.758041     -131.589676      -41.837452
 C         -48.793327     -134.566864      -42.324608
 C         -47.883430     -132.547714      -40.934700
 C         -48.525364     -133.946472      -40.985725
 H         -49.617424     -134.135651      -44.217663
 H         -50.642452     -133.426773      -42.931133
 H         -48.234528     -130.561905      -41.957016
 H         -49.855556     -131.493515      -41.439404
 H         -47.826580     -134.860153      -42.690521
 H         -49.245548     -135.477371      -41.990788
 H         -47.896320     -131.952133      -39.997158
 H         -46.855392     -132.548996      -41.459541
 H         -47.850574     -134.617935      -40.490273
 H         -49.383038     -134.070160      -40.215569
