20
 generated by VMD
 C         -20.854904      -52.315018       -9.617412
 N         -21.264942      -52.152512      -10.671844
 H         -19.065948      -49.914852      -11.513576
 H         -20.324209      -52.199013       -8.608289
 C         -18.177824      -49.915333      -12.181645
 C         -17.588497      -51.277534      -12.381306
 C         -17.268990      -48.678890      -12.187536
 C         -16.837160      -51.346470      -13.704447
 C         -16.620378      -48.737320      -13.519984
 C         -15.946318      -50.084671      -13.841466
 H         -18.467678      -51.916702      -12.459618
 H         -17.027340      -51.651329      -11.535334
 H         -17.862671      -47.757626      -12.098519
 H         -16.599590      -48.684414      -11.363095
 H         -17.570520      -51.327457      -14.519368
 H         -16.152428      -52.218456      -13.797908
 H         -15.859701      -47.912006      -13.607101
 H         -17.384668      -48.571449      -14.233844
 H         -15.596124      -49.985474      -14.922823
 H         -14.992385      -50.160591      -13.241928
