20
 generated by VMD
 C         -30.206802      -75.940849      -23.088182
 N         -30.884634      -75.487198      -23.882978
 H         -29.074667      -78.863640      -21.497570
 H         -29.461546      -76.513077      -22.406075
 C         -28.235228      -78.187881      -21.608936
 C         -27.495260      -78.179398      -22.914978
 C         -27.620720      -77.458015      -20.430691
 C         -26.756477      -76.804924      -23.124287
 C         -26.898239      -76.241676      -20.726429
 C         -25.947912      -76.390076      -21.931843
 H         -28.190657      -78.167664      -23.688669
 H         -26.902502      -79.000725      -22.978596
 H         -28.374357      -77.181030      -19.700943
 H         -26.892639      -78.094391      -19.952784
 H         -27.366577      -75.948898      -23.459562
 H         -26.136160      -77.065498      -23.968546
 H         -26.265089      -76.000763      -19.865934
 H         -27.431736      -75.252304      -21.007906
 H         -25.570753      -75.395081      -22.132738
 H         -25.146284      -77.189369      -21.676003
