20
 generated by VMD
 C         -71.238342     -198.980377      -64.514313
 N         -70.428764     -198.623566      -65.251808
 H         -72.275482     -196.565536      -66.484741
 H         -72.170418     -199.149155      -64.030571
 C         -73.008690     -195.977844      -67.032692
 C         -73.215256     -194.493347      -66.660049
 C         -73.493538     -196.494766      -68.410393
 C         -73.385323     -193.598175      -67.834869
 C         -74.714699     -195.619202      -68.730484
 C         -74.351799     -194.114059      -68.921844
 H         -72.285576     -194.209625      -66.066772
 H         -74.086983     -194.339447      -66.059135
 H         -72.777611     -196.327209      -69.247063
 H         -74.001114     -197.455261      -68.285049
 H         -72.397217     -193.652481      -68.312469
 H         -73.540848     -192.495926      -67.684914
 H         -75.577820     -195.567795      -68.001236
 H         -75.044212     -196.098511      -69.678650
 H         -74.050964     -193.905838      -69.972031
 H         -75.313423     -193.564484      -68.883659
