20
 generated by VMD
 C          -1.523381      -13.213129        0.718764
 N          -0.577880      -13.692582        0.391835
 H          -3.968191      -14.204694        2.073452
 H          -4.909598      -13.802409        0.637022
 C          -4.807178      -14.577659        1.444841
 C          -6.200373      -14.582927        2.190172
 C          -4.359716      -15.959112        1.030178
 C          -7.228353      -15.479083        1.474459
 C          -5.464656      -16.735647        0.293514
 C          -6.692008      -16.887218        1.082412
 H          -6.579682      -13.569173        2.271515
 H          -5.953806      -14.965867        3.147356
 H          -3.594154      -15.788132        0.282942
 H          -4.032744      -16.450035        1.891580
 H          -7.594271      -14.962722        0.538174
 H          -8.111166      -15.623572        2.167338
 H          -4.979968      -17.712490        0.017305
 H          -5.672456      -16.139473       -0.623129
 H          -7.473993      -17.396168        0.524053
 H          -6.494409      -17.374037        2.051264
