20
 generated by VMD
 C         -22.284063      -67.487396      -16.183664
 N         -21.168541      -67.213249      -16.128813
 H         -23.926289      -65.568520      -17.946384
 H         -23.348082      -67.780563      -15.947292
 C         -24.408978      -66.136673      -18.684420
 C         -23.908428      -66.696640      -19.876970
 C         -25.871679      -66.418533      -18.291874
 C         -24.475761      -68.017113      -20.215965
 C         -26.386070      -67.844452      -18.830124
 C         -26.040932      -68.043892      -20.294308
 H         -22.862656      -66.688339      -19.875963
 H         -24.032068      -66.141258      -20.815392
 H         -25.906385      -66.434700      -17.163107
 H         -26.435080      -65.614159      -18.709757
 H         -24.074600      -68.758194      -19.478615
 H         -24.176134      -68.325966      -21.191040
 H         -27.493916      -67.718292      -18.826073
 H         -26.118090      -68.611000      -18.160919
 H         -26.398975      -69.076279      -20.513874
 H         -26.448355      -67.368576      -21.027967
