20
 generated by VMD
 C         -21.488096      -65.796234      -17.109108
 N         -20.943932      -66.247620      -16.155716
 H         -24.128735      -63.850964      -18.092094
 H         -21.962383      -65.111328      -17.684259
 C         -24.598209      -64.792877      -18.465567
 C         -24.570118      -65.366760      -19.805716
 C         -25.272045      -65.685394      -17.377319
 C         -24.166084      -66.791290      -19.811806
 C         -25.040285      -67.151299      -17.549845
 C         -25.296467      -67.537720      -19.098200
 H         -23.790554      -64.877785      -20.343342
 H         -25.605766      -65.147530      -20.377235
 H         -25.039463      -65.253586      -16.331350
 H         -26.371441      -65.475662      -17.324501
 H         -23.188068      -66.892296      -19.354914
 H         -24.161842      -67.235115      -20.781174
 H         -25.757296      -67.684570      -16.866608
 H         -24.073324      -67.536194      -17.306833
 H         -25.101534      -68.604729      -19.137861
 H         -26.322987      -67.281487      -19.447227
