20
 generated by VMD
 C         -49.589733     -131.868576      -46.463623
 N         -50.228592     -132.358566      -47.233952
 H         -47.791637     -133.603775      -44.532909
 H         -49.010944     -131.242279      -45.754963
 C         -48.339603     -134.033478      -43.654453
 C         -49.217979     -135.294830      -43.981899
 C         -49.132599     -133.097534      -42.873699
 C         -49.667931     -135.944626      -42.679237
 C         -49.612236     -133.639938      -41.549843
 C         -50.467773     -134.900711      -41.853527
 H         -48.575954     -136.071915      -44.497616
 H         -49.993557     -135.065140      -44.651634
 H         -48.614422     -132.069473      -42.585186
 H         -49.995178     -132.823578      -43.499794
 H         -48.829712     -136.310745      -42.058662
 H         -50.457050     -136.676376      -42.750778
 H         -50.103081     -132.858948      -41.104084
 H         -48.898396     -133.931274      -40.775974
 H         -50.798824     -135.269211      -40.901054
 H         -51.340778     -134.651245      -42.345760
