20
 generated by VMD
 C         -21.239899      -52.116699       -9.975435
 N         -21.437048      -52.950569      -10.715779
 H         -19.645185      -50.208450      -12.219866
 H         -21.153273      -51.435955       -9.017517
 C         -18.668873      -50.351204      -12.708032
 C         -18.207800      -51.597237      -13.315091
 C         -17.612858      -49.394245      -12.243506
 C         -16.813618      -51.636059      -14.109670
 C         -16.343702      -49.456520      -13.095002
 C         -15.704784      -50.777828      -13.450956
 H         -18.927835      -52.008221      -13.994753
 H         -18.049240      -52.273285      -12.415226
 H         -18.004742      -48.358719      -12.103560
 H         -17.353584      -49.693104      -11.232534
 H         -16.845362      -51.438122      -15.202744
 H         -16.473011      -52.690445      -14.099512
 H         -15.521624      -48.951595      -12.613917
 H         -16.562033      -48.893230      -13.979177
 H         -14.838763      -50.529385      -14.106163
 H         -15.340151      -51.300793      -12.508108
