20
 generated by VMD
 C         -58.487457     -160.039474      -57.032990
 N         -58.562119     -159.907196      -58.170788
 H         -58.812038     -162.968872      -54.943016
 H         -58.394386     -160.138657      -55.966316
 C         -59.555553     -162.607849      -54.244678
 C         -59.248699     -162.859268      -52.746113
 C         -60.963535     -162.868622      -54.731319
 C         -60.300842     -162.009537      -51.804859
 C         -61.916477     -162.108734      -53.812630
 C         -61.725765     -162.326599      -52.285465
 H         -58.211250     -162.663330      -52.503983
 H         -59.386707     -163.968140      -52.531067
 H         -61.049694     -162.601883      -55.856213
 H         -61.216545     -163.896088      -54.803883
 H         -59.997837     -160.892822      -51.860035
 H         -60.058178     -162.434509      -50.760441
 H         -62.922947     -162.551849      -54.009678
 H         -61.937061     -160.978668      -53.801247
 H         -62.495544     -161.762253      -51.689964
 H         -61.936214     -163.427338      -52.134815
