20
 generated by VMD
 C         -39.634048     -105.516647      -37.282917
 N         -40.301838     -104.632492      -36.967178
 H         -39.268333     -108.486366      -35.393673
 H         -38.893158     -106.284523      -37.562824
 C         -39.474957     -108.781525      -34.358704
 C         -38.421497     -108.228600      -33.402573
 C         -40.648098     -109.519577      -34.010296
 C         -38.888687     -108.172859      -31.921837
 C         -40.994244     -109.522095      -32.472462
 C         -39.714626     -109.450584      -31.619019
 H         -38.068134     -107.356712      -33.813396
 H         -37.607906     -108.930351      -33.470219
 H         -41.501072     -109.206223      -34.710304
 H         -40.416855     -110.630730      -34.188808
 H         -39.562180     -107.248421      -31.725975
 H         -38.082996     -108.208992      -31.168884
 H         -41.641678     -110.324142      -32.193935
 H         -41.486252     -108.583565      -32.352711
 H         -39.969051     -109.619827      -30.654387
 H         -39.108028     -110.377296      -31.970528
