20
 generated by VMD
 C         -27.144623      -72.668320      -17.749952
 N         -27.883291      -73.354248      -17.191498
 H         -24.369999      -70.034195      -18.819099
 H         -26.445650      -72.135300      -18.354893
 C         -24.825495      -70.394478      -19.743883
 C         -24.302111      -71.704552      -20.414244
 C         -25.644974      -69.559776      -20.611601
 C         -25.395388      -72.398666      -21.321308
 C         -26.488270      -70.181755      -21.656641
 C         -25.850273      -71.350769      -22.402681
 H         -24.029510      -72.305199      -19.392960
 H         -23.356012      -71.372864      -20.881388
 H         -26.376873      -68.966927      -19.997280
 H         -24.849154      -68.895653      -21.033909
 H         -26.290005      -72.696274      -20.753290
 H         -25.090206      -73.278297      -21.922903
 H         -26.565680      -69.371948      -22.438606
 H         -27.549501      -70.375381      -21.283516
 H         -26.646980      -71.825752      -22.898479
 H         -24.966749      -71.144173      -23.048714
