20
 generated by VMD
 C          -0.867034      -13.423873        0.838968
 N          -0.288150      -13.257892       -0.080879
 H          -4.537315      -13.284185        2.134764
 H          -5.665396      -13.328646        0.754990
 C          -5.274232      -13.980199        1.577330
 C          -6.377423      -14.521228        2.426194
 C          -4.388715      -15.156056        1.100006
 C          -7.186884      -15.655445        1.824857
 C          -5.257811      -16.219017        0.383315
 C          -6.322925      -16.783043        1.371224
 H          -7.186363      -13.725085        2.556471
 H          -5.979590      -14.821101        3.413577
 H          -3.659571      -14.818515        0.310791
 H          -3.811255      -15.605427        2.027416
 H          -7.640723      -15.197344        0.973349
 H          -7.964581      -15.956899        2.517680
 H          -4.604650      -17.042667        0.108674
 H          -5.754841      -15.806456       -0.480066
 H          -6.793444      -17.687279        0.960373
 H          -5.664026      -17.109131        2.203097
