20
 generated by VMD
 C         -70.249939     -181.334122      -62.658653
 N         -70.951019     -180.445038      -63.034019
 H         -66.962189     -181.844391      -61.029434
 H         -69.651482     -182.088684      -62.189148
 C         -66.455002     -180.888474      -60.768715
 C         -65.003242     -180.881378      -60.156967
 C         -67.340645     -179.726654      -60.559818
 C         -64.314087     -179.674408      -60.864506
 C         -66.485237     -178.358185      -60.855869
 C         -65.027061     -178.406815      -60.427639
 H         -64.431602     -181.795273      -60.307384
 H         -65.172714     -180.746811      -59.135952
 H         -68.342270     -179.676804      -61.189896
 H         -67.619751     -179.563354      -59.511551
 H         -64.150940     -179.716125      -62.015518
 H         -63.278660     -179.413818      -60.372482
 H         -66.925392     -177.527740      -60.348606
 H         -66.610680     -178.100052      -61.902168
 H         -64.497696     -177.451462      -60.876858
 H         -65.163391     -178.283249      -59.372463
