20
 generated by VMD
 C         -39.654980      -99.242195      -28.326145
 N         -38.867691      -99.992554      -27.901571
 H         -37.558872      -98.090019      -30.868265
 H         -40.177277      -98.421684      -28.879225
 C         -36.470417      -98.033241      -30.797327
 C         -35.704781      -98.646751      -31.944201
 C         -35.590649      -97.771072      -29.554844
 C         -34.521225      -97.670227      -32.380329
 C         -34.321339      -97.067459      -29.919260
 C         -33.542652      -97.393669      -31.264309
 H         -36.434036      -98.887299      -32.683270
 H         -35.351795      -99.663765      -31.532501
 H         -36.030293      -97.085884      -28.876814
 H         -35.459141      -98.718544      -28.972374
 H         -35.008560      -96.724655      -32.774788
 H         -34.004662      -98.088562      -33.172600
 H         -33.581421      -97.169785      -29.188862
 H         -34.644989      -95.981537      -29.940681
 H         -33.092094      -96.389793      -31.561687
 H         -32.768375      -98.161476      -31.202522
