20
 generated by VMD
 C         -36.808601      -97.872513      -26.496412
 N         -35.903267      -98.311180      -25.901726
 H         -36.205376      -95.320076      -28.338381
 H         -37.505035      -97.436584      -27.081951
 C         -35.466721      -95.274498      -29.146826
 C         -35.668308      -96.194176      -30.364962
 C         -34.219200      -94.549713      -29.030907
 C         -35.310528      -95.590492      -31.696865
 C         -33.848011      -93.862183      -30.362127
 C         -33.964497      -94.880394      -31.656923
 H         -36.743614      -96.420219      -30.462564
 H         -35.151428      -97.061798      -30.071785
 H         -34.291157      -93.765129      -28.225384
 H         -33.334255      -95.096123      -28.720230
 H         -36.066738      -94.783356      -31.984795
 H         -35.241470      -96.252586      -32.519680
 H         -32.969299      -93.182648      -30.294716
 H         -34.598427      -93.110786      -30.391306
 H         -33.918072      -94.063454      -32.513111
 H         -33.158783      -95.495323      -31.666117
