20
 generated by VMD
 C         -13.352777      -44.502384       -6.549629
 N         -14.022509      -44.077412       -5.764982
 H         -15.269552      -44.830784       -8.936752
 H         -14.337163      -43.952461      -10.149809
 C         -15.325995      -44.415794       -9.938817
 C         -16.448374      -43.367458       -9.909222
 C         -15.533510      -45.561043      -10.942087
 C         -16.836130      -42.961700      -11.300739
 C         -16.146608      -45.171120      -12.308905
 C         -17.307650      -44.198635      -12.085300
 H         -16.285744      -42.475239       -9.262312
 H         -17.311054      -43.880299       -9.431952
 H         -14.589409      -46.128338      -11.099204
 H         -16.283539      -46.259552      -10.562170
 H         -16.052139      -42.372215      -11.782416
 H         -17.682798      -42.304790      -11.184689
 H         -16.569485      -46.044212      -12.831102
 H         -15.291917      -44.796120      -12.946828
 H         -17.686348      -43.903179      -13.091317
 H         -18.129995      -44.654957      -11.486780
