20
 generated by VMD
 C         -72.817719     -198.718140      -65.672112
 N         -73.784225     -199.161240      -66.141731
 H         -70.951706     -196.402664      -67.447731
 H         -71.868279     -198.363388      -65.276253
 C         -71.983047     -196.299286      -67.721794
 C         -73.003067     -195.629318      -66.902634
 C         -72.412369     -196.978271      -69.022331
 C         -74.274445     -195.289185      -67.718674
 C         -73.904251     -197.323990      -69.150887
 C         -74.903137     -196.645874      -68.278648
 H         -72.401886     -194.754913      -66.444145
 H         -73.299713     -196.097580      -65.949364
 H         -72.127899     -196.348740      -69.902313
 H         -71.866730     -197.927887      -69.163551
 H         -74.050743     -194.604813      -68.525276
 H         -75.105644     -194.896454      -67.089981
 H         -74.086792     -198.392517      -68.829079
 H         -74.215942     -197.375519      -70.168686
 H         -75.689270     -196.223328      -68.859222
 H         -75.407555     -197.244583      -67.366661
