20
 generated by VMD
 C          -6.998574      -23.295645        3.035587
 N          -6.296417      -22.620003        2.525634
 H          -6.855467      -21.648348       -0.269439
 H          -8.334040      -21.926437       -1.140655
 C          -7.349379      -21.571173       -1.199988
 C          -6.585596      -22.401184       -2.202101
 C          -7.376365      -20.128681       -1.552673
 C          -7.033636      -22.149820       -3.631328
 C          -7.829767      -19.907869       -2.951984
 C          -7.121146      -20.687473       -4.033782
 H          -6.796348      -23.456091       -1.921880
 H          -5.516678      -22.081070       -2.044558
 H          -8.013330      -19.564499       -0.765931
 H          -6.405095      -19.618534       -1.389701
 H          -8.020375      -22.589024       -3.722386
 H          -6.513595      -22.746185       -4.383370
 H          -7.921587      -18.826639       -3.153633
 H          -8.876677      -20.187592       -3.122678
 H          -7.529941      -20.451761       -4.998031
 H          -6.103359      -20.393356       -4.055359
