20
 generated by VMD
 C          -9.297077      -24.520035        1.158719
 N          -9.756982      -25.345373        1.768958
 H          -6.854248      -23.127794       -0.745362
 H          -8.423164      -22.645306       -1.492517
 C          -7.409234      -23.002165       -1.629126
 C          -7.477440      -24.339104       -2.460109
 C          -6.589483      -21.919205       -2.398091
 C          -8.007206      -24.087574       -3.952080
 C          -7.107927      -21.734909       -3.817210
 C          -7.016419      -23.052452       -4.607047
 H          -8.136523      -25.054853       -2.004320
 H          -6.494450      -24.871775       -2.566375
 H          -6.623267      -20.977009       -1.809332
 H          -5.534360      -22.208355       -2.301526
 H          -9.032293      -23.728268       -3.998410
 H          -7.994794      -24.989614       -4.512144
 H          -6.465257      -20.998413       -4.319193
 H          -8.092424      -21.313269       -3.890696
 H          -7.312455      -22.805397       -5.685884
 H          -5.987864      -23.445829       -4.723201
