20
 generated by VMD
 C         -49.457848     -133.006119      -46.884548
 N         -48.449806     -132.954712      -47.484856
 H         -48.225483     -134.488907      -44.020409
 H         -50.283703     -133.430450      -46.369766
 C         -49.268681     -134.798569      -43.931969
 C         -49.536346     -136.274155      -44.334587
 C         -50.296391     -134.045349      -43.209717
 C         -50.162506     -137.061234      -43.189247
 C         -50.864067     -134.901581      -41.958622
 C         -51.312279     -136.255600      -42.448582
 H         -48.685894     -136.826981      -44.755859
 H         -50.314976     -136.299194      -45.031967
 H         -49.889503     -133.138275      -42.756527
 H         -51.124065     -133.769012      -43.887928
 H         -49.336517     -137.166138      -42.431339
 H         -50.498390     -138.066269      -43.334846
 H         -51.606209     -134.157059      -41.589539
 H         -50.101044     -134.955750      -41.125217
 H         -51.554981     -136.784317      -41.537930
 H         -52.139595     -135.954544      -43.190735
