20
 generated by VMD
 C          -1.514558      -11.176691        1.552779
 N          -1.072750      -12.014359        1.021066
 H          -3.868119      -13.125511        0.208217
 H          -5.460492      -12.939775        0.809426
 C          -4.612670      -13.635775        0.778557
 C          -4.061863      -13.828039        2.268396
 C          -5.067703      -14.893421        0.135844
 C          -5.160338      -14.571339        3.093648
 C          -6.133948      -15.500289        1.009214
 C          -5.652564      -15.806835        2.423467
 H          -4.004245      -12.825697        2.787765
 H          -3.165648      -14.442234        2.298238
 H          -5.517572      -14.726292       -0.851482
 H          -4.153519      -15.534719        0.022213
 H          -6.014561      -13.884560        3.191962
 H          -4.820905      -14.797892        4.131276
 H          -6.447558      -16.427656        0.484263
 H          -6.952250      -14.786420        1.043260
 H          -6.445730      -16.308285        3.018972
 H          -4.797074      -16.526968        2.332301
