20
 generated by VMD
 C         -49.307476     -141.268875      -45.767479
 N         -48.673203     -141.555191      -44.834648
 H         -51.688393     -138.299347      -46.040985
 H         -49.970757     -140.967865      -46.569435
 C         -52.132381     -139.281311      -46.253780
 C         -52.802902     -139.452850      -47.782818
 C         -52.855286     -139.936172      -45.146461
 C         -53.251957     -140.832504      -48.066631
 C         -53.268734     -141.389725      -45.569576
 C         -54.138554     -141.337585      -46.868015
 H         -52.052277     -139.056030      -48.430710
 H         -53.702560     -138.810226      -47.941303
 H         -52.199436     -140.086578      -44.307453
 H         -53.681034     -139.397934      -44.906590
 H         -52.401958     -141.611938      -48.034550
 H         -53.652611     -140.817932      -49.091427
 H         -54.008049     -141.796066      -44.918869
 H         -52.352650     -141.936203      -45.816193
 H         -54.490589     -142.373550      -47.171352
 H         -55.099503     -140.684418      -46.624210
