20
 generated by VMD
 C         -32.414524      -93.322411      -25.392361
 N         -32.967003      -94.346268      -25.586452
 H         -33.763523      -95.042091      -28.692961
 H         -31.728966      -92.498810      -25.202694
 C         -34.284084      -94.217049      -29.202253
 C         -35.488014      -93.564255      -28.482275
 C         -33.728786      -93.381943      -30.264687
 C         -35.275967      -92.072075      -28.142778
 C         -33.546913      -91.928947      -29.878887
 C         -34.842403      -91.214706      -29.364798
 H         -35.768909      -94.315025      -27.676334
 H         -36.273392      -93.772408      -29.282396
 H         -32.757965      -93.775490      -30.686174
 H         -34.502949      -93.369507      -31.023651
 H         -34.632946      -92.085930      -27.303738
 H         -36.348042      -91.767532      -27.953159
 H         -33.067101      -91.360977      -30.663654
 H         -32.834240      -91.842812      -29.039795
 H         -34.672817      -90.127907      -29.015553
 H         -35.749138      -91.332191      -29.995689
