20
 generated by VMD
 C         -80.630341     -205.702377      -72.021881
 N         -79.939903     -206.606567      -72.020477
 H         -77.067413     -204.352707      -71.904381
 H         -81.114838     -204.755341      -72.267532
 C         -76.103355     -204.682404      -71.480820
 C         -75.079491     -203.682953      -71.110657
 C         -76.210121     -205.933182      -70.661041
 C         -74.339462     -203.820190      -69.785912
 C         -75.565582     -205.809174      -69.257576
 C         -74.205315     -205.176239      -69.180069
 H         -75.642517     -202.729340      -71.113655
 H         -74.441238     -203.635254      -71.997322
 H         -77.272659     -206.007065      -70.678146
 H         -75.835526     -206.704361      -71.250404
 H         -74.999474     -203.124100      -69.163635
 H         -73.298271     -203.377014      -69.867294
 H         -75.343483     -206.766373      -68.837662
 H         -76.295662     -205.403564      -68.588318
 H         -73.731422     -205.183548      -68.204544
 H         -73.562393     -205.767120      -69.900368
