20
 generated by VMD
 C          -1.368858      -11.836898        1.549841
 N          -1.061190      -12.425117        0.620356
 H          -3.904592      -12.941423        0.608899
 H          -5.623265      -13.033963        0.747312
 C          -4.702775      -13.639968        0.910397
 C          -4.613959      -13.865613        2.491728
 C          -4.736703      -14.916418        0.188400
 C          -5.744811      -14.800184        2.952402
 C          -5.870727      -15.835906        0.677905
 C          -5.873975      -16.095142        2.179890
 H          -4.656820      -12.965899        3.046951
 H          -3.642775      -14.310787        2.806127
 H          -4.848297      -14.735990       -0.956372
 H          -3.805251      -15.573127        0.283343
 H          -6.689740      -14.250725        2.808884
 H          -5.777143      -14.991652        3.999593
 H          -5.740881      -16.774776        0.168502
 H          -6.813472      -15.386448        0.351857
 H          -6.850151      -16.609173        2.400841
 H          -5.060646      -16.811052        2.454522
