20
 generated by VMD
 C         -76.651756     -203.186127      -66.630577
 N         -77.435059     -203.722595      -65.952698
 H         -75.425041     -200.505630      -68.331398
 H         -76.069168     -202.766815      -67.499580
 C         -74.807114     -199.928009      -68.987778
 C         -74.784187     -198.480453      -68.759521
 C         -73.580490     -200.489029      -69.752632
 C         -73.457054     -197.882599      -68.849724
 C         -73.300095     -199.327789      -70.769371
 C         -72.748726     -198.046158      -70.181030
 H         -75.283096     -198.195572      -67.789841
 H         -75.490944     -198.025986      -69.534866
 H         -72.763046     -200.499252      -68.949425
 H         -73.845634     -201.437866      -70.215820
 H         -72.782898     -198.195023      -68.018990
 H         -73.633415     -196.804337      -68.718277
 H         -74.273407     -199.117844      -71.330521
 H         -72.507469     -199.597168      -71.478271
 H         -71.673409     -198.072159      -70.104797
 H         -72.902565     -197.350983      -70.974464
