20
 generated by VMD
 C         -11.229021      -34.411095       -8.907689
 N         -10.770786      -35.321548       -8.455154
 H         -12.151804      -37.170601       -7.664663
 H         -13.263530      -37.000919       -6.211980
 C         -12.979228      -37.618126       -7.083870
 C         -12.496913      -39.049664       -6.673611
 C         -14.135480      -37.672443       -8.092482
 C         -13.678537      -39.901646       -6.174779
 C         -15.344326      -38.336010       -7.482317
 C         -14.920775      -39.836121       -7.115551
 H         -11.636860      -39.049080       -5.941004
 H         -12.089365      -39.567410       -7.583862
 H         -14.286527      -36.659760       -8.436118
 H         -13.834213      -38.260666       -8.953919
 H         -14.006895      -39.608795       -5.149562
 H         -13.319678      -40.902115       -6.118120
 H         -16.180193      -38.312675       -8.197418
 H         -15.594923      -37.799335       -6.604014
 H         -15.731469      -40.326473       -6.555852
 H         -14.781481      -40.391808       -8.010753
