20
 generated by VMD
 C         -68.808037     -185.858490      -66.151375
 N         -68.637413     -186.130249      -67.265465
 H         -69.298225     -183.009827      -63.445148
 H         -68.799889     -185.583023      -65.089684
 C         -69.337082     -183.766922      -62.749084
 C         -70.409958     -184.810608      -62.705585
 C         -68.031555     -183.871292      -62.107243
 C         -70.018044     -185.714890      -61.491928
 C         -67.727486     -185.135849      -61.300209
 C         -68.602989     -186.305145      -61.569004
 H         -70.262596     -185.290329      -63.618881
 H         -71.407166     -184.369354      -62.716450
 H         -67.246803     -183.714966      -62.817627
 H         -67.851517     -183.036316      -61.402538
 H         -70.592331     -186.636322      -61.501785
 H         -70.262352     -185.041306      -60.670326
 H         -67.675926     -184.781784      -60.201698
 H         -66.723724     -185.556366      -61.463066
 H         -68.501793     -186.692261      -62.484150
 H         -68.420624     -187.010437      -60.735207
