20
 generated by VMD
 C          -2.022064       -9.122056        0.870039
 N          -1.663715       -9.702092       -0.041092
 H          -2.737502      -11.874569        1.958829
 H          -3.432291      -12.102335        3.521365
 C          -3.371066      -12.555453        2.514016
 C          -2.859369      -14.055507        2.609504
 C          -4.752885      -12.404863        1.882291
 C          -3.890030      -14.978453        3.264205
 C          -5.741506      -13.384190        2.465737
 C          -5.243784      -14.856275        2.434864
 H          -1.898774      -13.941510        3.081716
 H          -2.735526      -14.313663        1.560188
 H          -5.162416      -11.415312        1.977277
 H          -4.674648      -12.668576        0.879225
 H          -4.070956      -14.859120        4.311981
 H          -3.527535      -16.004383        3.084757
 H          -6.684532      -13.342426        1.837226
 H          -5.994503      -13.088640        3.522833
 H          -5.971480      -15.454183        2.957710
 H          -5.134191      -15.384544        1.475233
