20
 generated by VMD
 C         -46.673336     -124.679375      -37.891163
 N         -46.964184     -124.482262      -36.793587
 H         -44.860931     -122.542984      -37.626221
 H         -46.452213     -125.116585      -38.896751
 C         -44.794579     -122.389793      -38.761768
 C         -43.500778     -122.406914      -39.502083
 C         -45.964756     -121.529236      -39.375004
 C         -43.656971     -122.662231      -41.050285
 C         -46.113499     -121.774727      -40.920250
 C         -44.827171     -121.741455      -41.657055
 H         -42.834858     -123.018631      -38.858486
 H         -43.105846     -121.448586      -39.501617
 H         -46.850071     -121.831223      -38.924236
 H         -45.859928     -120.447647      -39.114967
 H         -43.991287     -123.653999      -41.140118
 H         -42.803188     -122.280609      -41.611805
 H         -46.727268     -120.898148      -41.230309
 H         -46.898129     -122.697037      -41.003464
 H         -45.008144     -122.126503      -42.701229
 H         -44.500233     -120.742928      -41.843330
