20
 generated by VMD
 C         -47.735970     -138.076996      -45.905888
 N         -47.255512     -137.690598      -46.945816
 H         -50.401947     -137.801041      -44.252129
 H         -48.070900     -138.128448      -44.871033
 C         -51.262592     -138.078857      -44.825050
 C         -51.395576     -138.545029      -46.244408
 C         -52.560093     -137.633545      -44.030441
 C         -52.414974     -139.716507      -46.226353
 C         -53.584782     -138.736893      -44.148952
 C         -53.706242     -139.314362      -45.641361
 H         -50.371780     -138.954468      -46.576679
 H         -51.736053     -137.725464      -46.879711
 H         -52.343491     -137.463577      -42.947372
 H         -52.979385     -136.769730      -44.603344
 H         -52.094883     -140.602249      -45.512466
 H         -52.480000     -140.014313      -47.291351
 H         -54.537346     -138.305420      -43.871643
 H         -53.093857     -139.551422      -43.543236
 H         -54.504852     -140.179199      -45.527397
 H         -54.202339     -138.461761      -46.279430
