20
 generated by VMD
 C         -50.643482     -129.890427      -46.222916
 N         -50.883663     -130.229660      -45.138691
 H         -47.937698     -131.987976      -44.426342
 H         -50.655254     -129.936111      -47.280151
 C         -47.948071     -131.977036      -43.314053
 C         -48.230564     -133.119873      -42.556652
 C         -48.016071     -130.612320      -42.719604
 C         -47.726795     -133.160400      -41.135658
 C         -47.441528     -130.602142      -41.286247
 C         -48.064983     -131.788422      -40.448780
 H         -47.781940     -134.050797      -43.040665
 H         -49.250668     -133.293304      -42.591248
 H         -47.468716     -129.968292      -43.286137
 H         -49.074432     -130.323929      -42.697247
 H         -46.605087     -133.345993      -41.061783
 H         -48.249016     -134.032166      -40.636845
 H         -47.895935     -129.750320      -40.707130
 H         -46.387459     -130.549423      -41.178276
 H         -47.764450     -131.761322      -39.417877
 H         -49.176926     -131.756180      -40.492302
