20
 generated by VMD
 C          -6.555720      -22.536922        1.963574
 N          -6.227450      -22.910334        2.963305
 H          -5.653888      -19.879145       -0.368254
 H          -7.093468      -20.903496       -0.265369
 C          -6.456235      -20.353346       -0.970383
 C          -5.891352      -21.442223       -1.957963
 C          -7.185655      -19.285963       -1.768147
 C          -7.036088      -22.076984       -2.859933
 C          -8.245214      -19.879866       -2.664387
 C          -7.731197      -20.934807       -3.649209
 H          -5.499038      -22.212147       -1.344561
 H          -5.120611      -21.016943       -2.684855
 H          -7.636302      -18.529634       -1.038171
 H          -6.370540      -18.633402       -2.204878
 H          -7.761353      -22.720619       -2.296759
 H          -6.575987      -22.816633       -3.579489
 H          -8.779382      -19.089273       -3.242610
 H          -9.047894      -20.195353       -1.980320
 H          -8.564866      -21.407997       -4.218731
 H          -7.009468      -20.493910       -4.397813
