20
 generated by VMD
 C         -12.840490      -30.117989       -8.365200
 N         -13.826578      -30.559698       -8.648639
 H         -10.959526      -30.801008       -4.952559
 H         -10.852087      -31.541218       -3.465986
 C         -10.803752      -31.812647       -4.490775
 C          -9.459953      -32.449905       -4.920591
 C         -11.969436      -32.748020       -4.935327
 C          -9.196444      -33.753548       -4.208836
 C         -11.737866      -34.101700       -4.180171
 C         -10.316485      -34.675476       -4.542218
 H          -8.696039      -31.756855       -4.708881
 H          -9.571176      -32.598049       -6.014118
 H         -12.931915      -32.291618       -4.628123
 H         -11.944126      -32.798733       -6.034410
 H          -9.138846      -33.630032       -3.073814
 H          -8.229153      -34.114796       -4.643433
 H         -12.495362      -34.867046       -4.484240
 H         -11.691790      -33.980362       -3.072061
 H         -10.150572      -35.675911       -4.109786
 H         -10.285693      -34.850849       -5.623639
