20
 generated by VMD
 C         -56.323261     -149.732376      -46.372181
 N         -56.680969     -150.594452      -45.647442
 H         -53.156132     -147.804764      -47.716427
 H         -56.122517     -148.924622      -47.105740
 C         -53.685135     -147.431671      -48.600941
 C         -52.885056     -147.729294      -49.850491
 C         -54.693726     -146.289352      -48.559090
 C         -53.813980     -147.529816      -51.171833
 C         -55.350357     -145.716873      -49.832264
 C         -54.455696     -146.047745      -51.169384
 H         -52.623627     -148.745071      -49.665150
 H         -51.959328     -147.046066      -49.890621
 H         -55.515244     -146.505066      -47.971344
 H         -54.093388     -145.463699      -48.239277
 H         -54.599609     -148.313843      -51.153633
 H         -53.133541     -147.721603      -52.088573
 H         -55.731819     -144.566910      -49.847858
 H         -56.299168     -146.192520      -49.880814
 H         -54.978054     -145.883911      -52.110119
 H         -53.609444     -145.296127      -51.168865
