20
 generated by VMD
 C         -27.981346      -86.546684      -26.892931
 N         -27.931808      -85.553711      -26.341734
 H         -31.124680      -85.591400      -25.442848
 H         -28.167173      -87.558838      -27.406040
 C         -31.855762      -86.319557      -25.576838
 C         -32.604160      -86.841545      -24.406706
 C         -32.000462      -87.026039      -26.856819
 C         -34.070389      -87.308655      -24.833233
 C         -33.500481      -87.553909      -27.236475
 C         -34.091217      -88.220535      -26.012630
 H         -32.547462      -86.015053      -23.605083
 H         -32.114555      -87.721413      -24.026011
 H         -31.726198      -86.392700      -27.682501
 H         -31.423964      -87.964897      -26.885990
 H         -34.802422      -86.456245      -25.031071
 H         -34.597454      -87.697510      -23.880251
 H         -33.461292      -88.110809      -28.151718
 H         -34.144833      -86.641731      -27.518299
 H         -35.105431      -88.458534      -26.382572
 H         -33.557373      -89.099220      -25.726284
