20
 generated by VMD
 C         -40.655094     -104.063431      -36.830940
 N         -40.007557     -104.956589      -36.499344
 H         -40.071709     -106.935356      -34.740555
 H         -41.220791     -103.354759      -37.405300
 C         -39.801834     -107.171768      -33.722633
 C         -38.472225     -106.673996      -33.203537
 C         -39.977947     -108.683411      -33.521229
 C         -38.244884     -106.908905      -31.779514
 C         -39.701675     -109.028564      -32.024185
 C         -38.313152     -108.435310      -31.446758
 H         -38.396198     -105.556244      -33.367668
 H         -37.566422     -107.145508      -33.661407
 H         -40.918686     -109.004501      -33.826401
 H         -39.242348     -109.319443      -33.977940
 H         -39.081379     -106.329781      -31.248501
 H         -37.330658     -106.407379      -31.416121
 H         -39.616055     -110.055923      -31.861559
 H         -40.521343     -108.653313      -31.395992
 H         -38.424320     -108.604507      -30.313669
 H         -37.405163     -108.974754      -31.790506
