20
 generated by VMD
 C         -42.039215     -101.579796      -33.184181
 N         -41.143017     -101.650909      -33.872257
 H         -39.013325     -103.686264      -32.467216
 H         -42.914482     -101.094498      -32.658421
 C         -37.974537     -103.477951      -32.212009
 C         -36.758343     -103.429245      -33.003040
 C         -37.718517     -104.008118      -30.751322
 C         -35.480476     -102.682266      -32.383991
 C         -36.531273     -103.216034      -30.128159
 C         -35.264618     -103.148537      -30.993517
 H         -36.873402     -102.841782      -33.954517
 H         -36.426163     -104.419228      -33.306171
 H         -38.538063     -104.046432      -30.039654
 H         -37.330090     -105.024170      -30.705996
 H         -35.682110     -101.593025      -32.460262
 H         -34.655560     -102.867279      -33.106743
 H         -36.389263     -103.513016      -29.117441
 H         -36.861523     -102.155312      -30.092852
 H         -34.588051     -102.401604      -30.502712
 H         -34.620338     -104.080139      -31.097464
