20
 generated by VMD
 C         -33.483765      -96.544640      -25.332762
 N         -32.673256      -96.834732      -24.543575
 H         -34.679234      -93.752686      -27.452997
 H         -34.120983      -96.475922      -26.121899
 C         -34.759399      -93.450500      -28.488436
 C         -36.063240      -93.632797      -29.128754
 C         -33.526260      -93.205940      -29.311058
 C         -36.230869      -92.874557      -30.442530
 C         -33.840858      -92.340416      -30.540483
 C         -34.904873      -92.955963      -31.333578
 H         -36.968426      -93.439575      -28.496775
 H         -36.073814      -94.706421      -29.314119
 H         -32.776276      -92.736443      -28.633276
 H         -33.091064      -94.182579      -29.591364
 H         -36.380630      -91.897064      -29.924635
 H         -37.097584      -93.234390      -30.940702
 H         -32.887733      -92.413353      -31.123669
 H         -34.106060      -91.333267      -30.356606
 H         -35.184589      -92.584579      -32.325821
 H         -34.909832      -94.068794      -31.404022
