20
 generated by VMD
 C         -22.256428      -55.066929      -17.309414
 N         -22.770391      -55.054527      -18.323206
 H         -20.976704      -56.200512      -14.360521
 H         -22.015514      -55.360603      -16.371010
 C         -20.601156      -57.201454      -14.210709
 C         -20.842117      -57.981312      -12.893628
 C         -19.586964      -57.837730      -15.219409
 C         -20.846643      -59.530968      -13.144675
 C         -19.700016      -59.376770      -15.250962
 C         -19.704784      -60.080421      -13.949713
 H         -21.831202      -57.743458      -12.540252
 H         -20.182402      -57.675064      -12.099773
 H         -19.793358      -57.399239      -16.185781
 H         -18.502916      -57.508289      -14.956349
 H         -21.707445      -59.753803      -13.820386
 H         -21.070696      -60.061810      -12.172502
 H         -18.904308      -59.873558      -15.803021
 H         -20.711126      -59.579960      -15.699460
 H         -19.830139      -61.149406      -14.092386
 H         -18.746651      -59.933659      -13.408875
