20
 generated by VMD
 C         -69.902008     -184.499527      -66.251701
 N         -69.011284     -184.260025      -66.928719
 H         -69.767067     -183.578217      -63.174839
 H         -70.727257     -184.622650      -65.636757
 C         -68.925346     -183.625916      -62.467731
 C         -69.337105     -184.716293      -61.458630
 C         -68.144585     -182.446625      -62.087124
 C         -68.130226     -184.868011      -60.574078
 C         -66.849083     -182.951141      -61.444897
 C         -67.257065     -183.688507      -60.186115
 H         -69.542297     -185.748123      -61.848644
 H         -70.280518     -184.422134      -60.988583
 H         -67.816605     -181.848206      -62.888039
 H         -68.817062     -181.800323      -61.502781
 H         -67.562981     -185.747513      -61.008945
 H         -68.419075     -185.253922      -59.575336
 H         -66.191460     -182.158813      -61.094963
 H         -66.314529     -183.482788      -62.267563
 H         -66.339211     -183.953842      -59.662018
 H         -67.813744     -183.035156      -59.609890
