20
 generated by VMD
 C         -49.429119     -141.515381      -45.815468
 N         -49.218174     -141.902222      -44.768200
 H         -51.485992     -138.488388      -46.377380
 H         -49.760353     -141.328186      -46.823338
 C         -52.214401     -139.327194      -46.415565
 C         -52.926926     -139.476517      -47.724255
 C         -52.877617     -140.031494      -45.250286
 C         -53.176189     -140.928589      -48.090076
 C         -53.216785     -141.409195      -45.628143
 C         -53.868931     -141.619507      -47.033199
 H         -52.363689     -138.930191      -48.533012
 H         -53.799934     -138.864761      -47.473381
 H         -52.114193     -140.116150      -44.490849
 H         -53.797928     -139.568832      -44.892651
 H         -52.233990     -141.444046      -48.243656
 H         -53.634598     -140.945099      -49.097988
 H         -53.987061     -141.759964      -44.920166
 H         -52.346645     -142.020676      -45.610512
 H         -53.875065     -142.740097      -47.382622
 H         -54.959003     -141.221634      -47.008690
