20
 generated by VMD
 C         -74.103233     -201.073257      -65.802032
 N         -73.006508     -200.925278      -66.171799
 H         -75.936707     -198.364334      -67.555855
 H         -75.070381     -201.384430      -65.593109
 C         -75.127968     -197.988373      -68.164055
 C         -74.839462     -196.487915      -67.868896
 C         -74.503967     -198.833847      -69.248444
 C         -73.466469     -195.995560      -68.380280
 C         -73.363724     -198.015610      -69.883751
 C         -72.666992     -197.102905      -68.900833
 H         -74.835403     -196.297623      -66.799858
 H         -75.703354     -195.916260      -68.350471
 H         -73.889236     -199.674591      -68.813484
 H         -75.293343     -199.237686      -70.025024
 H         -73.039490     -195.450897      -67.554161
 H         -73.718201     -195.291763      -69.204102
 H         -73.818222     -197.395309      -70.644958
 H         -72.674179     -198.619080      -70.539841
 H         -72.331116     -197.598587      -68.062714
 H         -71.780098     -196.703918      -69.451111
