20
 generated by VMD
 C          -1.999507      -14.173335        2.044629
 N          -1.637401      -15.234251        2.041225
 H          -3.917319      -16.581749        0.823804
 H          -4.318425      -17.190033       -0.751791
 C          -4.749798      -16.859276        0.173045
 C          -5.676699      -15.641775        0.002176
 C          -5.409341      -18.054991        0.868684
 C          -7.056028      -16.085323       -0.540974
 C          -6.661901      -18.425003        0.154983
 C          -7.694400      -17.253838        0.126646
 H          -5.176272      -14.871382       -0.624369
 H          -5.867459      -15.121365        0.930631
 H          -4.808220      -18.885881        0.780889
 H          -5.471879      -17.918566        1.876398
 H          -6.915857      -16.247164       -1.640791
 H          -7.797809      -15.220065       -0.457333
 H          -7.193669      -19.330904        0.510593
 H          -6.407659      -18.624760       -0.927819
 H          -8.592607      -17.619007       -0.351484
 H          -7.963646      -17.042126        1.143543
