20
 generated by VMD
 C         -28.017107      -84.628960      -26.062321
 N         -28.375353      -84.447639      -27.148212
 H         -31.166559      -84.613815      -26.275042
 H         -27.791161      -84.689857      -25.076281
 C         -31.496367      -85.494972      -25.834377
 C         -31.685467      -85.717384      -24.323454
 C         -31.934746      -86.741684      -26.764734
 C         -33.040051      -86.386978      -24.019262
 C         -33.393524      -87.127800      -26.393442
 C         -33.355148      -87.515038      -24.977047
 H         -31.796370      -84.796288      -23.801073
 H         -30.851751      -86.176353      -23.738678
 H         -31.978039      -86.388863      -27.814837
 H         -31.221401      -87.522957      -26.696810
 H         -33.904774      -85.633682      -24.153828
 H         -33.253078      -86.654915      -22.969971
 H         -33.622097      -87.890640      -27.128538
 H         -34.098057      -86.246712      -26.641155
 H         -34.393784      -87.887253      -24.660006
 H         -32.591743      -88.379753      -24.762255
