20
 generated by VMD
 C         -30.924850      -78.300522      -26.155954
 N         -31.747379      -77.543114      -25.715723
 H         -29.330412      -77.927666      -23.520693
 H         -30.130383      -78.886528      -26.568712
 C         -28.883265      -78.626648      -22.807781
 C         -27.388323      -78.804871      -23.062761
 C         -29.594706      -79.777481      -22.235838
 C         -26.700787      -79.757553      -22.105137
 C         -28.833380      -80.665726      -21.306442
 C         -27.464491      -81.010391      -21.918831
 H         -26.871147      -77.872704      -23.026800
 H         -27.304081      -79.056923      -24.064873
 H         -30.537001      -79.369255      -21.683744
 H         -29.998705      -80.271790      -23.083397
 H         -26.551611      -79.222435      -21.159561
 H         -25.757215      -80.124756      -22.447153
 H         -29.381969      -81.613312      -21.041372
 H         -28.654099      -79.918755      -20.377892
 H         -26.916073      -81.704384      -21.242186
 H         -27.520971      -81.531395      -22.956415
