20
 generated by VMD
 C         -21.140984      -52.256618       -9.643015
 N         -21.372066      -52.595833      -10.755975
 H         -19.406977      -49.996517      -12.258337
 H         -20.846409      -51.716988       -8.960510
 C         -18.383438      -50.273201      -12.401467
 C         -17.903097      -51.604671      -12.830060
 C         -17.539396      -49.007759      -12.350426
 C         -16.946354      -51.409378      -14.005943
 C         -16.254757      -49.025330      -13.292910
 C         -15.826654      -50.442963      -13.590736
 H         -18.738720      -52.225864      -13.168327
 H         -17.467932      -52.221226      -12.031650
 H         -18.158190      -48.145565      -12.568036
 H         -17.090906      -48.999825      -11.326167
 H         -17.511854      -51.099400      -14.913114
 H         -16.534389      -52.403236      -14.164711
 H         -15.436327      -48.615654      -12.817452
 H         -16.422022      -48.327187      -14.152745
 H         -15.071579      -50.408333      -14.405354
 H         -15.261032      -50.924084      -12.724292
