20
 generated by VMD
 C         -50.021584     -144.356003      -44.363529
 N         -49.307629     -143.813599      -45.033066
 H         -52.321796     -142.531204      -45.757767
 H         -50.751865     -144.768280      -43.692730
 C         -52.925709     -142.082138      -46.517422
 C         -52.294266     -141.987656      -47.877083
 C         -54.377029     -141.512283      -46.506271
 C         -53.278809     -142.448181      -48.999516
 C         -55.208935     -141.977509      -47.575195
 C         -54.655060     -141.788162      -48.936253
 H         -51.337887     -142.638199      -48.058338
 H         -51.965862     -140.934937      -47.937130
 H         -54.734928     -141.730316      -45.480644
 H         -54.327045     -140.334198      -46.443382
 H         -53.356873     -143.619827      -48.768608
 H         -52.970974     -142.400253      -50.077789
 H         -56.092358     -141.229355      -47.502415
 H         -55.687149     -142.974884      -47.440601
 H         -55.356239     -142.385803      -49.645947
 H         -54.522778     -140.688889      -49.393349
