20
 generated by VMD
 C         -30.212624      -92.803703      -25.177065
 N         -30.521885      -93.697067      -25.819719
 H         -33.335190      -91.380791      -26.397205
 H         -29.826286      -92.038185      -24.491665
 C         -33.795792      -91.292755      -27.397095
 C         -35.077976      -92.211937      -27.482622
 C         -33.165482      -90.650879      -28.601765
 C         -36.081001      -91.632370      -28.565226
 C         -34.243687      -90.018860      -29.463028
 C         -35.322388      -91.085800      -29.758940
 H         -35.600994      -92.293533      -26.600206
 H         -34.845036      -93.217567      -27.735481
 H         -32.487598      -89.870163      -28.286087
 H         -32.415077      -91.278397      -29.150740
 H         -36.810726      -90.951347      -28.062756
 H         -36.649540      -92.505783      -28.804035
 H         -33.879948      -89.703690      -30.488674
 H         -34.796059      -89.157242      -29.106426
 H         -36.089470      -90.837746      -30.517733
 H         -34.825790      -91.982338      -30.174942
