20
 generated by VMD
 C         -56.182346     -150.215714      -47.077415
 N         -57.095482     -150.287628      -46.404114
 H         -53.410732     -147.883148      -47.459114
 H         -55.323002     -149.966797      -47.675777
 C         -53.733315     -147.611633      -48.420635
 C         -53.063351     -148.167862      -49.694637
 C         -54.535580     -146.224838      -48.564850
 C         -53.960381     -147.955597      -50.982418
 C         -55.470871     -146.192612      -49.819504
 C         -54.724255     -146.643433      -51.095509
 H         -52.982258     -149.338394      -49.485374
 H         -52.075638     -147.713150      -49.895248
 H         -55.148800     -145.987793      -47.648941
 H         -53.672626     -145.622559      -48.664268
 H         -54.722866     -148.722443      -51.153305
 H         -53.297756     -147.910446      -51.903217
 H         -55.769909     -145.104828      -49.929199
 H         -56.388412     -146.708893      -49.798637
 H         -55.499256     -146.682526      -51.912716
 H         -53.963428     -145.858215      -51.318901
