20
 generated by VMD
 C         -62.534050     -172.267838      -55.019333
 N         -61.613495     -172.961044      -55.306355
 H         -61.628246     -170.876373      -58.519417
 H         -63.431221     -171.683395      -54.792286
 C         -62.542755     -170.349686      -58.460926
 C         -62.329216     -168.917908      -58.003250
 C         -63.787956     -171.135178      -58.316174
 C         -63.553036     -168.054092      -58.268726
 C         -65.044449     -170.234512      -58.635830
 C         -64.928642     -168.794296      -58.024300
 H         -61.446960     -168.400360      -58.583897
 H         -62.062843     -168.931564      -56.996658
 H         -63.780521     -171.938110      -59.097515
 H         -63.676418     -171.644760      -57.256050
 H         -63.548351     -167.626556      -59.287437
 H         -63.423420     -167.266281      -57.553196
 H         -65.881996     -170.712143      -58.155106
 H         -65.199158     -170.203033      -59.680012
 H         -65.829292     -168.204666      -58.376774
 H         -65.040237     -168.824356      -56.866199
