20
 generated by VMD
 C         -70.266701     -183.377640      -65.927849
 N         -69.288986     -182.770782      -65.917519
 H         -68.456032     -185.052307      -62.938663
 H         -71.170982     -183.886322      -65.879539
 C         -68.182381     -184.253723      -62.218323
 C         -68.204384     -184.703537      -60.778069
 C         -67.866798     -182.937088      -62.731876
 C         -67.351700     -183.764786      -60.029663
 C         -67.103569     -182.102509      -61.671761
 C         -67.506416     -182.295883      -60.203976
 H         -67.779526     -185.718735      -60.783630
 H         -69.275360     -184.788895      -60.312279
 H         -67.242775     -183.110062      -63.713482
 H         -68.706680     -182.399902      -63.131008
 H         -66.375923     -184.182266      -60.195206
 H         -67.570892     -184.075150      -58.967434
 H         -67.306885     -181.052399      -61.888931
 H         -66.003555     -182.025269      -61.793640
 H         -66.787834     -181.711151      -59.420498
 H         -68.545151     -181.995331      -60.037506
