20
 generated by VMD
 C         -27.942709      -87.635139      -26.887022
 N         -28.059048      -86.839851      -26.025539
 H         -31.222855      -88.770233      -25.731529
 H         -28.004808      -88.482674      -27.679012
 C         -32.256931      -88.683098      -26.016901
 C         -33.414158      -88.779778      -24.974716
 C         -32.626003      -88.714333      -27.431242
 C         -34.448193      -87.758629      -25.347469
 C         -33.613293      -87.581841      -27.762529
 C         -34.846264      -87.855804      -26.812305
 H         -33.049404      -88.492744      -24.028015
 H         -33.767857      -89.810555      -24.910849
 H         -31.836617      -88.503563      -28.138544
 H         -33.019238      -89.699966      -27.733479
 H         -34.116112      -86.773560      -25.043560
 H         -35.349804      -87.947464      -24.816858
 H         -33.868870      -87.530655      -28.878292
 H         -32.941490      -86.732300      -27.563656
 H         -35.561081      -87.044960      -27.091978
 H         -35.279404      -88.845047      -27.048073
