20
 generated by VMD
 C         -25.645796      -71.307091      -16.860765
 N         -26.198956      -72.174553      -16.328180
 H         -24.107018      -68.960854      -18.823927
 H         -25.334911      -70.427650      -17.384529
 C         -24.668835      -69.415085      -19.620436
 C         -23.986967      -70.441154      -20.448416
 C         -25.796972      -68.664589      -20.212343
 C         -25.042009      -71.130798      -21.236984
 C         -26.829269      -69.494064      -21.070620
 C         -26.012445      -70.324883      -22.045376
 H         -23.489807      -71.154709      -19.754501
 H         -23.322960      -69.889992      -21.144186
 H         -26.350388      -68.211945      -19.402597
 H         -25.474628      -67.889015      -20.804039
 H         -25.619053      -71.769463      -20.554279
 H         -24.543631      -71.865936      -21.979019
 H         -27.717915      -69.013466      -21.516527
 H         -27.308319      -70.112556      -20.254725
 H         -26.549854      -71.104454      -22.580297
 H         -25.459435      -69.686333      -22.775690
