20
 generated by VMD
 C         -67.743645     -178.024780      -57.757687
 N         -67.207237     -178.718414      -57.014431
 H         -64.767212     -176.393753      -59.016994
 H         -68.219620     -177.321442      -58.448017
 C         -64.549484     -175.465897      -59.466522
 C         -65.723412     -174.564941      -59.810356
 C         -63.327595     -175.097000      -60.214397
 C         -65.427216     -173.062668      -59.650131
 C         -63.020996     -173.693161      -60.130543
 C         -64.141586     -172.730331      -60.461197
 H         -66.615875     -174.856369      -59.148647
 H         -66.097633     -174.811737      -60.768696
 H         -62.437397     -175.772125      -59.948452
 H         -63.615139     -175.275848      -61.250416
 H         -65.215363     -172.879822      -58.527542
 H         -66.382065     -172.435089      -59.716496
 H         -62.103615     -173.592911      -60.687408
 H         -62.750053     -173.326218      -59.077702
 H         -63.757416     -171.695908      -60.194099
 H         -64.545326     -172.715317      -61.470776
