20
 generated by VMD
 C         -31.220371      -75.720482      -21.624817
 N         -32.179066      -75.231262      -21.194941
 H         -27.807024      -74.835464      -20.189034
 H         -30.281965      -76.069473      -21.505350
 C         -26.799086      -75.070374      -20.545115
 C         -26.367931      -76.247101      -21.358957
 C         -25.849787      -73.992149      -20.395817
 C         -26.020138      -75.818275      -22.670708
 C         -25.334158      -73.534233      -21.724823
 C         -24.911383      -74.750900      -22.635307
 H         -27.218384      -77.036636      -21.395508
 H         -25.603842      -76.863701      -20.879608
 H         -26.271076      -73.125565      -19.796135
 H         -24.985888      -74.475838      -19.832434
 H         -26.846586      -75.417542      -23.315483
 H         -25.600302      -76.693451      -23.219851
 H         -24.518019      -72.830536      -21.771496
 H         -26.184227      -73.074326      -22.203197
 H         -24.768114      -74.450035      -23.716869
 H         -24.039242      -75.161072      -22.091661
