20
 generated by VMD
 C         -49.577652     -127.720642      -38.985310
 N         -49.904617     -126.759300      -38.415955
 H         -46.869835     -125.672661      -40.793934
 H         -49.128387     -128.551773      -39.533352
 C         -46.114815     -124.972939      -40.807846
 C         -44.817665     -125.487808      -40.236275
 C         -46.341469     -123.505554      -40.836960
 C         -43.654633     -124.824051      -40.944496
 C         -45.249580     -122.740150      -41.493950
 C         -43.742752     -123.273132      -41.042145
 H         -44.784672     -126.592255      -40.429333
 H         -44.757389     -125.361740      -39.036636
 H         -47.315037     -123.134865      -41.344296
 H         -46.419010     -123.159607      -39.882893
 H         -43.393364     -125.201363      -41.963814
 H         -42.789772     -125.010986      -40.281509
 H         -45.335442     -121.742592      -41.345093
 H         -45.302586     -122.889275      -42.561615
 H         -43.012615     -122.885612      -41.751209
 H         -43.629902     -122.840012      -40.048599
