20
 generated by VMD
 C         -12.625985      -30.252953       -8.104498
 N         -13.120743      -30.609468       -7.173905
 H         -11.220285      -30.365433       -5.397128
 H         -10.678680      -30.788904       -3.807347
 C         -10.902876      -31.288347       -4.744383
 C          -9.610204      -31.787779       -5.263324
 C         -11.998594      -32.320942       -4.634784
 C          -9.027768      -33.057980       -4.612896
 C         -11.444151      -33.553577       -3.955292
 C         -10.151387      -34.111618       -4.534238
 H          -8.873854      -30.991013       -5.171117
 H          -9.722479      -32.130829       -6.320709
 H         -12.850748      -31.908619       -4.063640
 H         -12.387326      -32.642044       -5.608868
 H          -8.711706      -32.767643       -3.611683
 H          -8.167353      -33.410133       -5.188145
 H         -12.263637      -34.253696       -4.004808
 H         -11.206861      -33.282867       -2.918130
 H          -9.830173      -35.023575       -4.025878
 H         -10.398598      -34.421375       -5.586633
