20
 generated by VMD
 C         -67.929482     -185.197891      -68.031036
 N         -67.594414     -185.516495      -66.957680
 H         -69.659180     -186.048782      -64.616646
 H         -68.190773     -185.029495      -69.082596
 C         -69.950241     -186.327072      -63.633621
 C         -70.776703     -185.430573      -62.776726
 C         -69.255157     -187.534286      -63.043877
 C         -70.113235     -185.222733      -61.406834
 C         -68.808876     -187.249756      -61.589455
 C         -69.801926     -186.520844      -60.698502
 H         -71.849937     -185.844879      -62.601173
 H         -70.988068     -184.505997      -63.339848
 H         -69.871445     -188.483551      -63.074772
 H         -68.468994     -187.746811      -63.766247
 H         -70.997391     -184.773224      -60.864113
 H         -69.283272     -184.519409      -61.400135
 H         -67.908524     -186.600616      -61.556332
 H         -68.361198     -188.176636      -61.188301
 H         -70.711143     -187.316742      -60.706062
 H         -69.583618     -186.303513      -59.618061
