20
 generated by VMD
 C         -28.329859      -88.073013      -26.260714
 N         -28.412718      -86.957504      -26.109087
 H         -31.234167      -89.327744      -26.094975
 H         -28.451704      -89.201103      -26.444008
 C         -32.206833      -88.960548      -26.384521
 C         -33.131794      -88.842201      -25.176779
 C         -32.710751      -88.844170      -27.775473
 C         -34.262203      -87.784065      -25.402044
 C         -33.817635      -87.694351      -27.872297
 C         -34.806332      -87.960785      -26.811161
 H         -32.420326      -88.526794      -24.368921
 H         -33.516327      -89.816811      -25.036699
 H         -32.010399      -88.466431      -28.541746
 H         -33.108063      -89.870056      -28.016209
 H         -33.761887      -86.871208      -25.204752
 H         -35.094326      -87.813423      -24.637770
 H         -34.333618      -87.645081      -28.810213
 H         -33.316540      -86.718987      -27.734177
 H         -35.649334      -87.194626      -26.883579
 H         -35.288116      -88.995148      -26.838387
