20
 generated by VMD
 C         -65.755753     -177.663742      -56.863209
 N         -66.169327     -176.583115      -56.939133
 H         -65.032066     -175.668564      -59.350349
 H         -65.411804     -178.638596      -56.652950
 C         -64.649292     -174.673279      -59.417141
 C         -65.429573     -173.637665      -58.598835
 C         -63.535439     -174.275192      -60.308750
 C         -65.193993     -172.096191      -59.040714
 C         -63.168381     -172.759018      -60.253483
 C         -64.308411     -171.806625      -60.202320
 H         -65.166481     -173.692123      -57.481316
 H         -66.489258     -173.953888      -58.536739
 H         -62.568970     -174.744598      -60.034184
 H         -63.537514     -174.707001      -61.267689
 H         -64.919472     -171.675751      -58.069965
 H         -66.217590     -171.708359      -59.162479
 H         -62.535927     -172.586288      -61.177399
 H         -62.554619     -172.512268      -59.416599
 H         -64.009254     -170.767670      -60.324215
 H         -64.884644     -172.100861      -61.144630
