20
 generated by VMD
 C         -11.445105      -33.745735       -9.194228
 N         -11.285757      -34.377338       -8.264599
 H         -11.464659      -37.146511       -8.084516
 H         -11.984429      -36.502209       -6.447140
 C         -12.233170      -37.270321       -7.258435
 C         -12.140150      -38.657654       -6.624707
 C         -13.604150      -37.133156       -7.869899
 C         -13.221739      -38.803818       -5.545146
 C         -14.762439      -37.333935       -6.829160
 C         -14.597079      -38.727203       -6.181820
 H         -11.143047      -38.858368       -6.227880
 H         -12.231332      -39.414375       -7.388741
 H         -13.717274      -36.156410       -8.454608
 H         -13.763251      -37.848709       -8.665161
 H         -13.090822      -38.137730       -4.688528
 H         -13.161946      -39.753204       -5.080057
 H         -15.814663      -37.328220       -7.351751
 H         -14.766639      -36.579704       -6.047262
 H         -15.361558      -38.775970       -5.364141
 H         -14.788253      -39.576717       -6.891534
