20
 generated by VMD
 C         -29.306570      -90.457497      -25.002420
 N         -28.997639      -91.566032      -25.181715
 H         -32.216026      -91.389343      -27.374786
 H         -29.644398      -89.495430      -24.667807
 C         -33.097725      -90.863518      -27.815996
 C         -34.404022      -91.521812      -27.534725
 C         -33.031654      -89.685226      -28.613781
 C         -35.595707      -90.452362      -27.297831
 C         -34.281830      -88.759888      -28.382284
 C         -35.616455      -89.546974      -28.529579
 H         -34.265549      -92.117821      -26.634521
 H         -34.665409      -92.217087      -28.402143
 H         -32.196003      -89.102844      -28.214348
 H         -33.013386      -89.893036      -29.670782
 H         -35.411942      -90.194321      -26.261978
 H         -36.473515      -91.139465      -27.289202
 H         -34.338459      -88.023369      -29.194164
 H         -34.427402      -88.183990      -27.467327
 H         -36.530949      -88.920815      -28.403889
 H         -35.543610      -89.972031      -29.524170
