20
 generated by VMD
 C         -19.539665      -60.853546      -17.373198
 N         -19.938519      -59.848698      -17.729227
 H         -22.754890      -60.154026      -16.441200
 H         -19.335520      -61.977535      -17.128229
 C         -23.124079      -61.207825      -16.416500
 C         -23.441395      -61.953213      -17.619059
 C         -23.412884      -61.904457      -15.106824
 C         -22.795355      -63.410698      -17.550032
 C         -23.248964      -63.385494      -15.107506
 C         -23.574863      -64.088264      -16.364344
 H         -23.245659      -61.540386      -18.626961
 H         -24.531837      -62.244698      -17.469456
 H         -22.799961      -61.582710      -14.342510
 H         -24.445072      -61.649281      -14.799186
 H         -21.714039      -63.470058      -17.316586
 H         -22.941202      -63.980083      -18.467020
 H         -24.000736      -63.676613      -14.327024
 H         -22.331335      -63.789200      -14.598358
 H         -23.347309      -65.142639      -16.405960
 H         -24.698181      -64.098045      -16.513100
