20
 generated by VMD
 C         -21.235649      -52.073994      -10.148555
 N         -21.450443      -53.068253      -10.711467
 H         -19.675785      -50.255505      -12.974979
 H         -21.150635      -50.983772       -9.410819
 C         -18.587202      -50.480137      -12.820468
 C         -18.202856      -51.863922      -13.401456
 C         -17.628752      -49.488636      -12.291848
 C         -16.965284      -51.589088      -14.257355
 C         -16.269251      -49.498905      -12.922507
 C         -15.919190      -50.925964      -13.296130
 H         -19.033287      -52.334469      -13.932499
 H         -17.875740      -52.520065      -12.601747
 H         -17.899902      -48.458519      -12.173141
 H         -17.455597      -49.782848      -11.222707
 H         -17.177176      -51.086834      -15.227169
 H         -16.490849      -52.533268      -14.532441
 H         -15.613091      -49.041302      -12.221151
 H         -16.216230      -48.887390      -13.918294
 H         -14.900745      -51.104126      -13.676531
 H         -16.015017      -51.526424      -12.347980
