20
 generated by VMD
 C         -18.209766      -48.637154       -7.254277
 N         -18.895325      -49.421547       -6.828405
 H         -16.211885      -47.678543      -10.056312
 H         -16.411823      -49.062386      -11.178170
 C         -16.334091      -47.952873      -11.137907
 C         -15.200266      -47.396446      -11.938197
 C         -17.664946      -47.387577      -11.626963
 C         -15.356801      -47.292988      -13.515019
 C         -17.769670      -47.645981      -13.154052
 C         -16.740046      -46.825523      -13.889050
 H         -14.297304      -48.056694      -11.830811
 H         -15.062881      -46.373363      -11.546389
 H         -18.466570      -47.809818      -11.053179
 H         -17.626480      -46.314762      -11.438475
 H         -15.071937      -48.242615      -14.015261
 H         -14.601377      -46.582989      -13.838249
 H         -18.811703      -47.381413      -13.570354
 H         -17.626728      -48.708725      -13.286373
 H         -16.893072      -46.887512      -14.986824
 H         -16.898668      -45.715511      -13.651297
