20
 generated by VMD
 C         -45.374821     -123.281616      -35.433601
 N         -45.912365     -124.304222      -35.288460
 H         -45.058968     -122.424698      -38.326694
 H         -44.956882     -122.303391      -35.487270
 C         -44.790546     -121.722122      -39.184265
 C         -43.409653     -121.330910      -39.589718
 C         -45.869591     -120.677574      -39.455959
 C         -43.376244     -120.937714      -41.041943
 C         -45.825722     -120.270210      -40.963966
 C         -44.426548     -119.832367      -41.455280
 H         -42.865837     -122.203163      -39.352375
 H         -42.841534     -120.602531      -38.917759
 H         -46.909142     -121.017723      -39.352390
 H         -45.725094     -119.894424      -38.722218
 H         -43.473770     -121.876305      -41.721462
 H         -42.388615     -120.660484      -41.408157
 H         -46.545300     -119.432968      -41.076031
 H         -46.195820     -121.177574      -41.545994
 H         -44.363785     -119.693436      -42.533928
 H         -44.152340     -118.978104      -40.870342
