20
 generated by VMD
 C          -1.267019      -13.363704        0.790085
 N          -0.381535      -13.523153        0.122846
 H          -4.362438      -13.606620        1.880258
 H          -5.516721      -13.845963        0.628921
 C          -5.062742      -14.318156        1.484565
 C          -6.272378      -14.621872        2.334801
 C          -4.342310      -15.538518        1.108371
 C          -7.272235      -15.566887        1.593140
 C          -5.318031      -16.496597        0.357775
 C          -6.566273      -16.853388        1.160917
 H          -6.861180      -13.669993        2.515218
 H          -5.936802      -15.091395        3.287087
 H          -3.437553      -15.328938        0.489792
 H          -3.935474      -16.043829        2.093066
 H          -7.636528      -15.093596        0.706167
 H          -8.114029      -15.768880        2.225276
 H          -4.774269      -17.387520        0.166138
 H          -5.583919      -16.084274       -0.618288
 H          -7.284108      -17.435305        0.571258
 H          -6.337399      -17.414759        2.068050
