20
 generated by VMD
 C         -12.589689      -28.553188       -5.938127
 N         -13.176332      -27.670095       -5.611463
 H         -11.575906      -31.551832       -3.784879
 H         -11.197078      -30.031876       -4.787014
 C         -10.817079      -30.777311       -4.123209
 C          -9.739402      -31.630531       -4.891304
 C         -10.193302      -30.206163       -2.896892
 C          -8.632998      -30.618925       -5.317889
 C          -9.014260      -29.334164       -3.189663
 C          -7.969909      -30.107450       -4.050855
 H         -10.369562      -32.109482       -5.658844
 H          -9.347561      -32.391895       -4.236517
 H         -10.929161      -29.607149       -2.388157
 H          -9.962546      -31.016890       -2.239787
 H          -9.128292      -29.801754       -5.825763
 H          -7.880892      -31.001686       -6.024869
 H          -8.507132      -28.968592       -2.245824
 H          -9.390798      -28.511927       -3.758456
 H          -7.073450      -29.486423       -4.213181
 H          -7.554315      -30.952686       -3.474681
