20
 generated by VMD
 C          -2.036477       -8.653995       -0.725391
 N          -1.932343       -8.077869        0.195714
 H          -3.390234       -9.450205        2.879065
 H          -1.905586      -10.323285        2.893000
 C          -2.964398      -10.459591        3.081955
 C          -3.579997      -11.493698        2.187564
 C          -3.440052      -10.700468        4.554565
 C          -3.393111      -12.882735        2.577140
 C          -3.170478      -12.161604        4.988411
 C          -3.901914      -13.054659        4.006960
 H          -3.139754      -11.477267        1.172014
 H          -4.622580      -11.237070        2.001875
 H          -3.019244      -10.004765        5.214849
 H          -4.504439      -10.487452        4.633735
 H          -2.355991      -13.167513        2.642907
 H          -3.873839      -13.649444        1.960894
 H          -3.655778      -12.248112        5.960996
 H          -2.095406      -12.341411        5.075552
 H          -3.897609      -14.086372        4.382418
 H          -4.990951      -12.813663        3.937153
