20
 generated by VMD
 C         -10.453058      -39.706299       -6.785722
 N         -11.205044      -40.124714       -6.092162
 H         -13.477387      -40.645924       -9.101509
 H         -15.196466      -39.862789       -9.430043
 C         -14.642383      -40.854729       -9.311907
 C         -15.268578      -41.649151       -8.162781
 C         -14.700776      -41.627632      -10.640727
 C         -16.712917      -41.991978       -8.501966
 C         -16.172014      -42.027500      -10.938393
 C         -16.816341      -42.862255       -9.776606
 H         -15.170384      -41.019619       -7.236786
 H         -14.619925      -42.536736       -8.074487
 H         -14.340125      -40.992489      -11.488687
 H         -14.051854      -42.469471      -10.605007
 H         -17.300861      -41.065472       -8.633004
 H         -17.129471      -42.573612       -7.691127
 H         -16.246185      -42.611565      -11.797303
 H         -16.913960      -41.175526      -11.148859
 H         -17.876896      -43.112106      -10.035237
 H         -16.386436      -43.871628       -9.703568
