20
 generated by VMD
 C         -30.204298      -80.110329      -26.303583
 N         -29.277740      -79.595093      -26.746183
 H         -28.599518      -82.446350      -25.529091
 H         -31.055819      -80.590385      -25.892511
 C         -29.219339      -82.769432      -24.729233
 C         -29.037979      -82.197304      -23.343414
 C         -29.968218      -84.158226      -24.708838
 C         -30.433132      -82.154282      -22.448643
 C         -31.251780      -84.079414      -23.825344
 C         -30.947832      -83.505951      -22.406216
 H         -28.641312      -81.171768      -23.290827
 H         -28.274231      -82.674347      -22.809404
 H         -30.279360      -84.381836      -25.763420
 H         -29.192223      -84.920494      -24.441877
 H         -31.113985      -81.456848      -22.903318
 H         -30.133146      -81.910522      -21.363667
 H         -31.812721      -85.040344      -23.784655
 H         -31.939522      -83.310577      -24.330467
 H         -31.969711      -83.481773      -21.782606
 H         -30.393991      -84.305145      -21.925863
