20
 generated by VMD
 C          -1.867723      -13.979300        2.296068
 N          -1.748979      -14.798566        1.541641
 H          -3.711867      -16.689342        0.667337
 H          -4.555394      -17.082195       -0.795043
 C          -4.726025      -16.910358        0.263542
 C          -5.559388      -15.669318        0.394055
 C          -5.368474      -18.129997        0.867033
 C          -6.867817      -15.863585       -0.389454
 C          -6.760808      -18.389103        0.209766
 C          -7.639497      -17.089867        0.058269
 H          -4.992150      -14.873244       -0.077488
 H          -5.860228      -15.391012        1.416855
 H          -4.752388      -19.033083        0.745421
 H          -5.496776      -17.876951        1.955251
 H          -6.468727      -16.025454       -1.376968
 H          -7.490726      -14.924419       -0.368097
 H          -7.325663      -19.123699        0.740831
 H          -6.529287      -18.795549       -0.798530
 H          -8.448289      -17.345314       -0.641971
 H          -8.102554      -16.875725        1.017881
