20
 generated by VMD
 C         -15.082979      -45.792957       -7.122458
 N         -14.601701      -46.742573       -6.748590
 H         -15.493344      -44.159576       -9.034605
 H         -14.496501      -44.289913      -10.454687
 C         -15.579539      -44.384220      -10.115969
 C         -16.417421      -43.357441      -10.841789
 C         -16.073082      -45.809486      -10.307089
 C         -16.636551      -43.846443      -12.255654
 C         -16.298820      -46.324631      -11.747791
 C         -17.204672      -45.276356      -12.429681
 H         -16.108580      -42.324352      -10.791710
 H         -17.426748      -43.347652      -10.347613
 H         -15.478504      -46.569088       -9.799562
 H         -16.993208      -45.813652       -9.707006
 H         -15.736065      -43.808254      -12.867446
 H         -17.349358      -43.177868      -12.764152
 H         -16.848263      -47.241852      -11.625920
 H         -15.294626      -46.572701      -12.217756
 H         -17.312187      -45.392757      -13.522380
 H         -18.222389      -45.372143      -11.878672
