20
 generated by VMD
 C          -7.032836      -23.394045        2.175564
 N          -7.221053      -22.367994        1.760673
 H          -8.451620      -23.366135       -1.061458
 H          -9.278563      -22.443470       -2.211842
 C          -8.279147      -22.664457       -1.806201
 C          -7.469584      -23.366234       -2.852822
 C          -7.719243      -21.369961       -1.271323
 C          -6.996068      -22.434237       -4.004460
 C          -7.245814      -20.425671       -2.414151
 C          -6.318872      -21.157034       -3.405311
 H          -8.006267      -24.258293       -3.309209
 H          -6.650081      -23.846851       -2.368906
 H          -8.476272      -20.942924       -0.586191
 H          -6.778524      -21.632385       -0.737151
 H          -7.944565      -22.082064       -4.412186
 H          -6.313060      -22.987570       -4.637990
 H          -6.783695      -19.527029       -1.966162
 H          -8.196723      -20.241503       -2.930020
 H          -5.999695      -20.499609       -4.232431
 H          -5.439416      -21.475540       -2.862947
