20
 generated by VMD
 C         -50.678692     -129.205215      -42.973156
 N         -50.270477     -128.322311      -42.389347
 H         -48.497707     -128.237076      -40.459320
 H         -51.124874     -130.090240      -43.393467
 C         -47.563290     -127.728851      -40.578281
 C         -46.351139     -128.442612      -40.031853
 C         -47.194332     -126.417686      -41.039623
 C         -45.210613     -128.514038      -41.025368
 C         -45.975517     -126.333237      -42.038647
 C         -44.790169     -127.114433      -41.462933
 H         -46.603897     -129.471268      -39.808949
 H         -46.004475     -128.037674      -39.019794
 H         -47.951817     -125.890511      -41.532284
 H         -47.086376     -125.780731      -40.043793
 H         -45.601543     -128.967697      -41.974594
 H         -44.305580     -128.937836      -40.536518
 H         -45.726345     -125.249306      -42.236542
 H         -46.353020     -126.872093      -42.923260
 H         -44.035240     -127.337364      -42.249905
 H         -44.254951     -126.604042      -40.621624
