20
 generated by VMD
 C         -28.068419      -72.580414      -18.000877
 N         -28.214033      -73.600586      -17.449280
 H         -25.089384      -71.467041      -18.710588
 H         -27.610332      -71.655708      -18.600073
 C         -25.308704      -71.483551      -19.751760
 C         -24.414686      -72.359711      -20.599834
 C         -25.764990      -70.202217      -20.443081
 C         -25.192924      -72.773239      -21.846964
 C         -26.468855      -70.674156      -21.750198
 C         -25.549755      -71.564415      -22.600286
 H         -24.164387      -73.297340      -19.933474
 H         -23.394182      -71.795464      -20.782171
 H         -26.434193      -69.725136      -19.775518
 H         -24.898451      -69.499664      -20.602404
 H         -26.048565      -73.445717      -21.788315
 H         -24.517456      -73.242958      -22.550146
 H         -26.846212      -69.693176      -22.172110
 H         -27.469934      -71.247925      -21.575642
 H         -26.072979      -71.934113      -23.495501
 H         -24.699203      -70.954773      -22.837221
