20
 generated by VMD
 C         -49.936150     -142.718964      -45.340206
 N         -48.796577     -143.121841      -45.288834
 H         -51.948296     -139.417084      -45.767990
 H         -50.932854     -142.340012      -45.281136
 C         -52.615906     -140.085175      -46.333462
 C         -52.274551     -140.368088      -47.737015
 C         -54.055458     -140.302155      -45.918770
 C         -52.867378     -141.698608      -48.241867
 C         -54.353264     -141.749527      -46.265507
 C         -54.210556     -141.965485      -47.748787
 H         -51.221550     -140.288834      -47.955296
 H         -52.696560     -139.586929      -48.385204
 H         -53.966728     -140.059586      -44.865417
 H         -54.673210     -139.565872      -46.464504
 H         -52.253563     -142.504379      -47.896877
 H         -52.732574     -141.877411      -49.267418
 H         -55.392673     -141.938400      -45.868946
 H         -53.644459     -142.495422      -45.763844
 H         -54.489334     -142.962326      -48.075851
 H         -54.947079     -141.440018      -48.296265
