20
 generated by VMD
 C         -61.590721     -155.882721      -53.773567
 N         -61.539448     -154.970276      -54.536087
 H         -58.691414     -155.307083      -51.851307
 H         -61.638702     -156.685989      -53.074684
 C         -57.642330     -155.141617      -51.553673
 C         -57.377308     -154.433151      -50.278572
 C         -56.531013     -155.272263      -52.570984
 C         -56.130375     -154.885132      -49.545040
 C         -55.200565     -155.732391      -51.793701
 C         -54.926800     -154.923462      -50.413792
 H         -58.310886     -154.339661      -49.677917
 H         -57.116325     -153.287338      -50.561176
 H         -56.897457     -155.913635      -53.329082
 H         -56.141983     -154.416794      -53.064034
 H         -56.310585     -156.003830      -49.172920
 H         -55.976627     -154.434875      -48.542671
 H         -54.365379     -155.821182      -52.501972
 H         -55.310436     -156.833740      -51.473225
 H         -54.207794     -155.395737      -49.856163
 H         -54.624226     -153.871292      -50.723297
