20
 generated by VMD
 C         -22.100981      -67.272812      -16.471390
 N         -21.061054      -66.962929      -16.084826
 H         -23.967096      -65.210632      -17.966440
 H         -23.225365      -67.610481      -16.549400
 C         -24.464710      -66.058952      -18.413519
 C         -23.948122      -66.484489      -19.855743
 C         -25.913347      -66.201485      -18.272825
 C         -24.378099      -67.813911      -20.310387
 C         -26.279165      -67.635918      -18.543001
 C         -25.848085      -68.057198      -19.976700
 H         -22.887835      -66.611694      -19.716730
 H         -24.179695      -65.656715      -20.611397
 H         -26.079073      -65.944870      -17.204573
 H         -26.525747      -65.609856      -19.019957
 H         -23.845274      -68.613785      -19.766617
 H         -24.190269      -67.920311      -21.403269
 H         -27.353813      -67.895973      -18.436495
 H         -25.738728      -68.244644      -17.745987
 H         -26.322420      -68.970901      -20.339487
 H         -26.359377      -67.247665      -20.550997
