20
 generated by VMD
 C         -69.961563     -181.017227      -62.338173
 N         -70.494751     -180.029648      -62.597122
 H         -66.765511     -181.722397      -60.187836
 H         -69.538643     -181.928040      -62.038063
 C         -66.305740     -180.808075      -60.441559
 C         -64.805283     -180.593994      -60.431866
 C         -67.259911     -179.633392      -60.283958
 C         -64.306694     -179.192856      -60.882118
 C         -66.659576     -178.300476      -60.986050
 C         -65.259964     -178.091766      -60.511734
 H         -64.471985     -181.341309      -61.195091
 H         -64.488937     -180.759583      -59.408188
 H         -68.233063     -179.784393      -60.913887
 H         -67.640068     -179.422455      -59.280415
 H         -64.033653     -179.186600      -61.905602
 H         -63.348068     -178.843170      -60.554802
 H         -67.305153     -177.433456      -60.772751
 H         -66.658119     -178.469574      -62.105846
 H         -64.843048     -177.097733      -61.039852
 H         -65.159660     -177.844223      -59.462811
