20
 generated by VMD
 C         -80.445351     -205.595932      -71.943199
 N         -79.828102     -206.590668      -71.835968
 H         -77.297432     -203.806412      -70.975266
 H         -81.134476     -204.742340      -71.853035
 C         -76.352646     -204.321152      -71.165512
 C         -75.047638     -203.623077      -71.223694
 C         -76.137131     -205.705261      -70.708809
 C         -74.279022     -203.643402      -69.850586
 C         -75.479408     -205.813324      -69.293663
 C         -74.168205     -205.052643      -69.206917
 H         -75.091751     -202.589752      -71.541039
 H         -74.350906     -204.160065      -71.884857
 H         -77.115631     -206.194397      -70.549637
 H         -75.490364     -206.401093      -71.304871
 H         -74.922356     -203.091202      -69.138390
 H         -73.337364     -202.995453      -69.760979
 H         -75.456100     -206.855728      -68.955315
 H         -76.182594     -205.253708      -68.661316
 H         -73.817604     -204.952789      -68.145996
 H         -73.428436     -205.745407      -69.623299
