20
 generated by VMD
 C         -41.683434     -101.461456      -32.696842
 N         -41.530476     -101.582092      -33.864750
 H         -38.829514     -102.921288      -32.380432
 H         -41.768177     -101.303085      -31.638800
 C         -37.792717     -103.087227      -32.012928
 C         -36.661495     -103.085548      -32.938232
 C         -37.533203     -103.552811      -30.670765
 C         -35.328163     -102.453239      -32.427097
 C         -36.395035     -102.756905      -30.148230
 C         -35.109509     -102.888008      -30.879538
 H         -36.897995     -102.484970      -33.828548
 H         -36.469273     -104.147118      -33.301109
 H         -38.547119     -103.400917      -30.195688
 H         -37.279858     -104.684258      -30.651030
 H         -35.400208     -101.433289      -32.557926
 H         -34.558216     -102.844177      -33.065750
 H         -35.968273     -102.931061      -29.145786
 H         -36.728699     -101.727707      -30.130508
 H         -34.364769     -102.251472      -30.339712
 H         -34.828972     -103.903725      -30.984049
