20
 generated by VMD
 C         -14.451494      -45.462250       -6.133558
 N         -14.515160      -46.016766       -7.113352
 H         -15.279209      -44.134201       -9.009192
 H         -14.442061      -44.286827      -10.639639
 C         -15.404388      -44.326378      -10.109863
 C         -16.467327      -43.345798      -10.660728
 C         -15.886997      -45.741734      -10.328608
 C         -16.840157      -43.568199      -12.115231
 C         -16.237440      -46.022045      -11.811999
 C         -17.263168      -44.978081      -12.339043
 H         -16.078547      -42.342655      -10.693120
 H         -17.355925      -43.415459      -10.044683
 H         -15.065116      -46.438873      -10.011424
 H         -16.804588      -45.912670       -9.771297
 H         -15.941494      -43.315533      -12.704716
 H         -17.588011      -42.825195      -12.425348
 H         -16.562454      -47.074074      -11.994423
 H         -15.319736      -45.927639      -12.395120
 H         -17.416006      -45.190109      -13.449544
 H         -18.281118      -45.116051      -11.888857
