20
 generated by VMD
 C         -49.525532     -127.650276      -39.694122
 N         -50.471436     -127.532318      -40.393444
 H         -47.466480     -127.270370      -42.250782
 H         -48.540684     -127.696617      -39.262875
 C         -46.618713     -126.710617      -41.744545
 C         -45.672215     -127.236023      -40.674397
 C         -46.663795     -125.103416      -41.947605
 C         -44.437737     -126.409317      -40.449112
 C         -45.329250     -124.455177      -41.641079
 C         -44.714302     -124.909897      -40.367508
 H         -45.607067     -128.278488      -40.808231
 H         -46.264061     -127.226166      -39.691967
 H         -47.001781     -124.818199      -42.963593
 H         -47.421097     -124.711212      -41.335957
 H         -43.768387     -126.599976      -41.333279
 H         -43.822975     -126.595802      -39.548637
 H         -45.464336     -123.278114      -41.612015
 H         -44.510506     -124.671669      -42.401672
 H         -43.734013     -124.417549      -40.209965
 H         -45.408489     -124.752342      -39.563156
