20
 generated by VMD
 C         -29.190098      -73.433327      -19.233860
 N         -29.655563      -74.376884      -18.784111
 H         -25.846329      -73.172295      -18.879118
 H         -28.783386      -72.539627      -19.754810
 C         -25.440578      -72.843208      -19.890133
 C         -24.867907      -73.836288      -20.777113
 C         -25.629477      -71.522057      -20.403658
 C         -25.608215      -73.797546      -22.100790
 C         -26.289751      -71.575737      -21.788876
 C         -25.565908      -72.519714      -22.801067
 H         -25.068022      -74.795998      -20.223894
 H         -23.898106      -73.562012      -20.865801
 H         -26.249006      -70.961441      -19.653147
 H         -24.623634      -71.112442      -20.449980
 H         -26.685461      -74.100990      -21.977823
 H         -25.118196      -74.492935      -22.811808
 H         -26.339333      -70.537933      -22.301495
 H         -27.319649      -72.005379      -21.771734
 H         -25.923981      -72.700569      -23.836044
 H         -24.609488      -72.158890      -22.827335
