20
 generated by VMD
 C         -13.955631      -43.336189       -6.567809
 N         -13.123187      -43.679577       -5.902259
 H         -15.173930      -45.204620       -8.880023
 H         -14.330350      -43.909763       -9.871964
 C         -15.198703      -44.548740       -9.814576
 C         -16.401405      -43.585651       -9.581927
 C         -15.415650      -45.384254      -11.046181
 C         -16.803530      -42.788376      -10.820566
 C         -16.024330      -44.632706      -12.260138
 C         -17.246086      -43.742928      -11.896316
 H         -16.104456      -42.916630       -8.728987
 H         -17.276651      -44.192192       -9.391644
 H         -14.398849      -45.784016      -11.378599
 H         -16.140600      -46.219799      -10.802200
 H         -15.975825      -42.179592      -11.179009
 H         -17.618725      -42.144749      -10.517535
 H         -16.261209      -45.479774      -12.980557
 H         -15.275276      -44.045746      -12.734025
 H         -17.695730      -43.140106      -12.764441
 H         -18.056902      -44.434540      -11.564346
