20
 generated by VMD
 C         -18.223185      -49.249832       -8.185821
 N         -19.156202      -49.841671       -8.238222
 H         -16.312721      -47.580021       -9.977345
 H         -16.736416      -49.130955      -10.791360
 C         -16.566793      -48.013283      -10.950966
 C         -15.352968      -47.802639      -11.864295
 C         -17.740892      -47.276684      -11.529122
 C         -15.718649      -48.602230      -13.145761
 C         -17.985264      -47.557327      -13.028397
 C         -16.752695      -47.793861      -13.845439
 H         -14.476722      -48.208359      -11.350365
 H         -15.079064      -46.770142      -12.125577
 H         -18.642603      -47.326424      -10.902658
 H         -17.547461      -46.215572      -11.460249
 H         -16.047102      -49.649605      -12.996589
 H         -14.791324      -48.779823      -13.745192
 H         -18.520334      -46.796471      -13.517591
 H         -18.612286      -48.490093      -13.039978
 H         -17.071047      -48.275749      -14.829843
 H         -16.229248      -46.804031      -14.098314
