20
 generated by VMD
 C         -20.274717      -57.261269      -16.828527
 N         -19.202364      -57.177040      -17.200426
 H         -22.515783      -59.435162      -17.294498
 H         -21.122742      -57.486496      -16.278284
 C         -22.444210      -60.375183      -16.739796
 C         -23.712477      -60.983227      -16.193146
 C         -21.171190      -60.916073      -16.319477
 C         -23.686211      -61.755386      -14.897464
 C         -21.163830      -62.274929      -15.519126
 C         -22.293478      -62.250343      -14.471622
 H         -24.021835      -61.723740      -16.933268
 H         -24.490005      -60.240665      -16.127047
 H         -20.552759      -60.923706      -17.231241
 H         -20.763176      -60.108936      -15.687176
 H         -24.427942      -62.587299      -14.862204
 H         -24.089514      -61.141510      -14.105212
 H         -20.174763      -62.533257      -15.098130
 H         -21.464491      -63.049675      -16.299206
 H         -22.426823      -63.310966      -14.140402
 H         -21.950037      -61.788738      -13.526874
