20
 generated by VMD
 C         -30.805271      -75.070610      -22.693251
 N         -31.261431      -75.513329      -21.702528
 H         -28.780941      -77.077942      -21.888008
 H         -30.618071      -74.213127      -23.476389
 C         -27.810375      -77.048828      -21.448179
 C         -26.690308      -77.790451      -22.100079
 C         -27.395346      -75.851227      -20.658096
 C         -25.787111      -76.803932      -22.994837
 C         -26.558590      -74.868340      -21.428499
 C         -25.351084      -75.567947      -22.150900
 H         -27.260952      -78.498070      -22.848417
 H         -26.152563      -78.313187      -21.260021
 H         -28.257517      -75.324921      -20.348528
 H         -26.912676      -76.053818      -19.749805
 H         -26.363632      -76.461601      -23.923479
 H         -24.852594      -77.221313      -23.426228
 H         -26.087053      -74.071106      -20.850134
 H         -27.213173      -74.410347      -22.266396
 H         -25.060736      -74.825432      -22.903765
 H         -24.525503      -76.000473      -21.501331
