20
 generated by VMD
 C         -30.654888      -93.896652      -25.994802
 N         -30.777803      -93.666183      -24.842518
 H         -33.714493      -93.005829      -26.933739
 H         -30.502680      -94.231720      -27.010418
 C         -34.152328      -92.631126      -27.822239
 C         -35.614094      -92.737488      -28.170382
 C         -33.411171      -92.228035      -29.017288
 C         -36.229382      -91.382378      -28.647242
 C         -33.956291      -90.948364      -29.690851
 C         -35.537868      -90.881012      -29.890491
 H         -36.106884      -93.156281      -27.252581
 H         -35.867413      -93.569626      -28.795595
 H         -32.377796      -92.017540      -28.715437
 H         -33.503441      -93.176788      -29.669128
 H         -36.112301      -90.632561      -27.766520
 H         -37.288982      -91.535431      -28.882610
 H         -33.526775      -90.866417      -30.756550
 H         -33.537384      -90.168533      -29.088366
 H         -35.761562      -89.960922      -30.383417
 H         -35.658077      -91.619194      -30.599209
