20
 generated by VMD
 C         -58.184723     -167.549164      -55.356533
 N         -57.145206     -167.955887      -55.035069
 H         -61.501755     -166.668411      -55.041531
 H         -59.142544     -167.215485      -55.659512
 C         -61.975155     -166.234833      -55.936043
 C         -62.240463     -166.987137      -57.179668
 C         -62.740166     -164.927536      -55.659229
 C         -63.674194     -167.366165      -57.040245
 C         -64.218468     -165.335419      -55.656235
 C         -64.593163     -166.202255      -56.842060
 H         -61.431683     -167.909821      -57.264610
 H         -61.935986     -166.379669      -58.004971
 H         -62.318790     -164.530609      -54.684517
 H         -62.543144     -164.148773      -56.429855
 H         -63.939007     -168.046082      -56.202236
 H         -64.035393     -167.865936      -57.941643
 H         -64.851547     -164.359390      -55.522453
 H         -64.401527     -165.841492      -54.577415
 H         -65.581978     -166.511719      -56.684330
 H         -64.694023     -165.554031      -57.642078
