20
 generated by VMD
 C         -69.277397     -194.490662      -64.859688
 N         -68.378525     -193.857254      -65.282272
 H         -71.108299     -194.337723      -67.448662
 H         -70.004539     -195.125961      -64.249580
 C         -71.891861     -193.666870      -67.043388
 C         -71.713234     -192.233231      -66.725342
 C         -73.324814     -194.174057      -67.223900
 C         -72.493919     -191.892715      -65.376320
 C         -74.300957     -192.962280      -67.023445
 C         -73.997955     -192.260284      -65.635185
 H         -72.074463     -191.486084      -67.578514
 H         -70.654755     -192.125015      -66.593246
 H         -73.358833     -194.479721      -68.331177
 H         -73.506546     -195.030457      -66.452896
 H         -72.322975     -190.864105      -65.165726
 H         -72.047310     -192.531006      -64.576149
 H         -75.395500     -193.233566      -66.915382
 H         -74.233406     -192.260391      -67.852486
 H         -74.662178     -191.309723      -65.494873
 H         -74.247620     -192.932037      -64.898140
