20
 generated by VMD
 C         -60.817112     -153.264404      -52.389820
 N         -60.826077     -153.128738      -51.187160
 H         -57.604584     -153.959366      -50.645138
 H         -60.833729     -153.582428      -53.431507
 C         -56.665737     -153.393173      -50.642559
 C         -55.601894     -153.631302      -49.574257
 C         -56.561337     -152.112610      -51.337612
 C         -54.103943     -153.186996      -49.846592
 C         -55.096535     -151.640427      -51.652931
 C         -54.021984     -151.861862      -50.492329
 H         -55.571957     -154.690704      -49.216846
 H         -56.100895     -153.219650      -48.713783
 H         -57.014523     -152.344818      -52.287346
 H         -57.183872     -151.360550      -50.793106
 H         -53.611511     -153.991928      -50.469582
 H         -53.716274     -153.169693      -48.864208
 H         -55.045113     -150.683792      -52.029415
 H         -54.754120     -152.295166      -52.465401
 H         -53.105656     -151.669998      -50.923439
 H         -54.274097     -151.068680      -49.690697
