20
 generated by VMD
 C         -39.777275     -101.005638      -31.247473
 N         -40.465866     -100.090233      -31.328730
 H         -37.344501     -103.260513      -31.588751
 H         -39.179779     -102.006401      -31.248440
 C         -36.923168     -102.323044      -31.360447
 C         -36.432537     -101.740974      -32.662819
 C         -36.426979     -102.003090      -30.131453
 C         -35.809063     -100.373108      -32.556782
 C         -36.033535     -100.514030      -30.059912
 C         -35.256210      -99.903969      -31.242569
 H         -37.128181     -101.808228      -33.493511
 H         -35.593636     -102.314865      -33.087685
 H         -37.222313     -102.061279      -29.389688
 H         -35.563873     -102.636177      -29.933283
 H         -36.480030      -99.645050      -32.882172
 H         -35.026680     -100.304512      -33.376595
 H         -35.316135     -100.385193      -29.165243
 H         -36.818100      -99.818489      -29.817524
 H         -35.262783      -98.840797      -31.107063
 H         -34.166351     -100.154518      -31.218534
