20
 generated by VMD
 C         -79.923820     -205.431763      -71.640045
 N         -79.925880     -206.587723      -71.546089
 H         -77.044403     -203.730026      -71.478447
 H         -79.835632     -204.331497      -71.671066
 C         -76.201256     -203.820450      -70.786484
 C         -75.303497     -202.667801      -70.470543
 C         -76.169365     -205.110229      -70.068588
 C         -73.864616     -203.212662      -70.337715
 C         -75.073975     -205.130920      -69.080360
 C         -73.847839     -204.660919      -69.776550
 H         -75.652512     -202.353424      -69.478188
 H         -75.481964     -201.892822      -71.192497
 H         -77.198799     -205.283356      -69.552582
 H         -76.130699     -205.892456      -70.878838
 H         -73.398346     -202.505081      -69.558418
 H         -73.323456     -203.091248      -71.275040
 H         -74.926888     -206.113998      -68.540710
 H         -75.353081     -204.486984      -68.313416
 H         -72.982681     -204.652252      -69.132294
 H         -73.651398     -205.350403      -70.591248
