20
 generated by VMD
 C         -50.881939     -129.367706      -45.162010
 N         -50.951591     -130.007401      -44.212440
 H         -49.097900     -128.527054      -42.010239
 H         -50.886497     -128.870682      -46.097809
 C         -48.202385     -128.774902      -41.276695
 C         -47.849663     -130.256592      -40.953499
 C         -47.173481     -127.723793      -40.934959
 C         -46.451408     -130.494934      -41.449879
 C         -45.723480     -128.183105      -41.306156
 C         -45.453465     -129.567642      -40.916012
 H         -48.564770     -130.883240      -41.406326
 H         -48.008923     -130.467026      -39.823219
 H         -47.526703     -126.802757      -41.555878
 H         -47.187122     -127.523804      -39.924957
 H         -46.372002     -130.314163      -42.492767
 H         -46.193264     -131.533218      -41.264812
 H         -45.177299     -127.363113      -40.878696
 H         -45.616295     -127.901901      -42.356968
 H         -44.484932     -129.929245      -41.343662
 H         -45.207508     -129.654785      -39.874195
