20
 generated by VMD
 C          -2.580498      -17.997242        2.612513
 N          -1.967187      -17.149572        2.229330
 H          -5.212022      -18.367777        1.032907
 H          -5.225330      -19.496054       -0.365573
 C          -5.812076      -18.657907        0.112220
 C          -5.847684      -17.521891       -0.868770
 C          -7.242435      -19.162987        0.454178
 C          -6.704816      -17.814697       -2.120755
 C          -7.931884      -19.456844       -0.908028
 C          -8.087438      -18.268995       -1.755612
 H          -4.860103      -17.284426       -1.208041
 H          -6.203053      -16.591410       -0.344269
 H          -7.211055      -20.069506        1.055606
 H          -7.778386      -18.486912        1.151796
 H          -6.156112      -18.451050       -2.847386
 H          -6.803909      -16.827351       -2.722235
 H          -8.897743      -19.904917       -0.669384
 H          -7.453588      -20.299501       -1.475055
 H          -8.635017      -18.594179       -2.669537
 H          -8.671194      -17.455889       -1.332306
