20
 generated by VMD
 C         -40.850128     -104.023781      -36.792645
 N         -41.294636     -104.968491      -36.263508
 H         -39.120426     -105.289627      -33.984169
 H         -40.503899     -103.164665      -37.418949
 C         -38.845123     -106.034363      -33.308369
 C         -37.579578     -105.973038      -32.619129
 C         -39.664379     -107.221970      -33.404667
 C         -37.609383     -106.751053      -31.207434
 C         -39.453526     -108.034081      -32.122440
 C         -38.070114     -108.184196      -31.501831
 H         -37.394756     -104.838432      -32.425117
 H         -36.742321     -106.330353      -33.229969
 H         -40.752605     -107.193817      -33.508041
 H         -39.427303     -107.786560      -34.283493
 H         -38.351990     -106.296196      -30.537739
 H         -36.603333     -106.576286      -30.777130
 H         -39.709782     -109.092941      -32.287369
 H         -40.138515     -107.829529      -31.294262
 H         -38.120716     -108.849174      -30.613806
 H         -37.468143     -108.764862      -32.229042
