20
 generated by VMD
 C         -77.324066     -202.927124      -69.376556
 N         -77.778458     -203.793655      -68.697861
 H         -75.732391     -202.075760      -67.701111
 H         -76.943428     -202.233490      -70.087616
 C         -74.983833     -201.522079      -68.203461
 C         -75.130257     -200.087723      -68.490578
 C         -73.940590     -202.374954      -68.885635
 C         -74.676765     -199.637177      -69.911346
 C         -73.198517     -201.527939      -69.987122
 C         -74.100922     -200.789062      -70.805061
 H         -74.816483     -199.430878      -67.656982
 H         -76.196609     -199.945465      -68.507713
 H         -73.340965     -202.881943      -68.210205
 H         -74.585922     -203.004349      -69.456894
 H         -73.841652     -198.926804      -69.772301
 H         -75.596848     -199.166077      -70.365608
 H         -72.680679     -202.218430      -70.673988
 H         -72.448944     -200.942154      -69.465149
 H         -73.497414     -200.386795      -71.689491
 H         -74.876801     -201.459732      -71.201668
