20
 generated by VMD
 C         -69.411339     -185.056900      -66.632957
 N         -69.203384     -185.005341      -67.782852
 H         -69.379036     -183.373856      -63.351871
 H         -69.636459     -185.155807      -65.537918
 C         -69.184677     -183.326019      -62.279984
 C         -69.785728     -184.411209      -61.420498
 C         -68.227951     -182.452591      -61.518047
 C         -68.554436     -185.250580      -60.998230
 C         -66.965523     -183.433975      -61.344563
 C         -67.236900     -184.605453      -60.406025
 H         -70.483711     -185.141693      -61.869896
 H         -70.387016     -183.916153      -60.630478
 H         -67.981705     -181.438263      -61.975777
 H         -68.753990     -182.197632      -60.579735
 H         -68.300766     -185.880951      -61.877258
 H         -68.778023     -185.998047      -60.227009
 H         -66.144058     -182.992554      -60.857838
 H         -66.561363     -183.538773      -62.354923
 H         -66.410439     -185.391983      -60.323650
 H         -67.486053     -184.351791      -59.406601
