20
 generated by VMD
 C         -29.831789      -91.474106      -25.365738
 N         -29.043850      -92.136902      -24.903826
 H         -32.541504      -90.008064      -26.513514
 H         -30.698900      -90.960472      -25.855423
 C         -33.087265      -90.442841      -27.415642
 C         -34.152546      -91.465675      -27.290680
 C         -33.207474      -89.547638      -28.716944
 C         -35.539761      -90.988571      -27.682894
 C         -34.594917      -89.017540      -28.881758
 C         -35.660954      -90.049942      -28.876480
 H         -34.174343      -91.649239      -26.254192
 H         -33.771065      -92.308716      -27.890303
 H         -32.456848      -88.717216      -28.621344
 H         -33.021324      -90.208130      -29.595604
 H         -36.098656      -90.423828      -26.876772
 H         -36.262955      -91.715813      -28.047218
 H         -34.554607      -88.287300      -29.705965
 H         -34.742496      -88.353203      -28.008661
 H         -36.682316      -89.612373      -28.700542
 H         -35.752193      -90.646240      -29.832525
