20
 generated by VMD
 C         -60.778069     -153.282547      -52.332966
 N         -60.655739     -152.843735      -51.208977
 H         -57.438236     -153.969147      -50.396587
 H         -60.909016     -153.805511      -53.262058
 C         -56.519993     -153.403290      -50.467476
 C         -55.396191     -153.492111      -49.425308
 C         -56.586857     -152.103195      -51.195282
 C         -54.089870     -153.168503      -50.066689
 C         -55.181942     -151.533218      -51.649155
 C         -54.178158     -151.642105      -50.481819
 H         -55.525921     -154.380966      -48.874924
 H         -55.558132     -152.744766      -48.662395
 H         -57.309017     -152.172394      -52.056843
 H         -57.020214     -151.465286      -50.424389
 H         -53.711910     -153.820786      -50.836544
 H         -53.334946     -153.397079      -49.241066
 H         -55.416782     -150.476974      -52.022171
 H         -54.812790     -152.136047      -52.366879
 H         -53.246475     -151.220901      -50.953812
 H         -54.361698     -150.910461      -49.739307
