20
 generated by VMD
 C         -27.215242      -72.813004      -17.930094
 N         -27.955078      -73.340111      -17.225145
 H         -24.963676      -70.567184      -18.607117
 H         -26.407360      -72.520355      -18.525997
 C         -25.036858      -70.681099      -19.687380
 C         -24.470480      -71.874878      -20.304979
 C         -25.516193      -69.665131      -20.720879
 C         -25.260807      -72.390846      -21.383118
 C         -26.524134      -70.205620      -21.756580
 C         -25.928530      -71.406395      -22.379084
 H         -24.252720      -72.499855      -19.443645
 H         -23.470701      -71.564850      -20.610725
 H         -25.996378      -68.824677      -20.197767
 H         -24.602970      -69.342545      -21.176542
 H         -26.114107      -73.001038      -21.047432
 H         -24.587875      -73.057144      -21.980928
 H         -26.617754      -69.469223      -22.526550
 H         -27.357895      -70.441017      -21.150377
 H         -26.678635      -71.928986      -23.047840
 H         -25.081085      -71.161621      -23.099575
