20
 generated by VMD
 C         -57.590572     -164.231476      -56.677410
 N         -57.271297     -163.288620      -57.197964
 H         -59.885391     -165.252258      -54.620132
 H         -57.849365     -165.133911      -56.159966
 C         -60.842987     -164.872314      -54.596497
 C         -61.807835     -165.458481      -53.580936
 C         -61.397171     -164.443359      -55.989136
 C         -63.218822     -164.971710      -53.677731
 C         -62.728626     -163.810715      -55.767494
 C         -63.682407     -164.758347      -55.095879
 H         -61.489464     -165.092636      -52.627964
 H         -61.753376     -166.573105      -53.707714
 H         -60.732277     -163.579315      -56.339111
 H         -61.381199     -165.210190      -56.697254
 H         -63.342434     -164.005234      -53.195141
 H         -63.891407     -165.569794      -53.016273
 H         -63.192318     -163.725677      -56.773804
 H         -62.714176     -162.975189      -55.124458
 H         -64.767395     -164.342087      -54.944355
 H         -63.836189     -165.780151      -55.642414
