20
 generated by VMD
 C         -50.444145     -129.262802      -43.762825
 N         -50.903786     -130.070633      -44.453026
 H         -49.199181     -128.027008      -40.873211
 H         -50.168308     -128.554367      -43.024002
 C         -48.178082     -128.308563      -41.121681
 C         -47.767036     -129.747879      -40.988419
 C         -47.065338     -127.287079      -40.955757
 C         -46.372948     -130.073517      -41.653957
 C         -45.645500     -127.713402      -41.322624
 C         -45.273464     -129.223053      -41.054062
 H         -48.663155     -130.302460      -41.494305
 H         -47.846149     -130.054062      -39.980560
 H         -47.370621     -126.399139      -41.377579
 H         -47.051281     -127.109467      -39.801144
 H         -46.324162     -130.058716      -42.791954
 H         -46.289124     -131.174423      -41.578941
 H         -44.953506     -127.067757      -40.784863
 H         -45.411999     -127.636078      -42.333202
 H         -44.311161     -129.479706      -41.485207
 H         -45.382236     -129.307571      -39.951488
