20
 generated by VMD
 C         -73.703323     -200.338348      -65.724854
 N         -73.424591     -201.059128      -64.863174
 H         -72.275261     -197.211349      -66.641235
 H         -73.906784     -199.554840      -66.479469
 C         -72.637291     -196.802292      -67.553795
 C         -73.597549     -195.719910      -67.236610
 C         -72.514534     -197.393921      -68.892334
 C         -74.150276     -195.023361      -68.400131
 C         -73.831245     -197.365097      -69.633530
 C         -74.564110     -196.021576      -69.543442
 H         -72.864967     -195.130859      -66.523796
 H         -74.434776     -196.141632      -66.744331
 H         -71.824913     -196.748352      -69.457115
 H         -72.175339     -198.457993      -68.786903
 H         -73.351784     -194.443634      -68.881607
 H         -74.862587     -194.243103      -68.177155
 H         -74.469856     -198.113403      -69.140480
 H         -73.818878     -197.823563      -70.665619
 H         -74.606819     -195.535843      -70.470955
 H         -75.616768     -196.312088      -69.204117
