20
 generated by VMD
 C          -6.960055      -23.321856        3.140718
 N          -6.377368      -22.624208        2.466351
 H          -7.109871      -21.957453       -0.278927
 H          -8.527415      -21.972452       -1.288965
 C          -7.503630      -21.715511       -1.226078
 C          -6.636742      -22.518656       -2.295984
 C          -7.371034      -20.157507       -1.528365
 C          -7.054859      -22.198166       -3.732361
 C          -7.842081      -19.897030       -2.955305
 C          -6.995873      -20.699968       -3.973250
 H          -6.792678      -23.590298       -2.053410
 H          -5.576840      -22.155169       -2.142229
 H          -7.996856      -19.529438       -0.772263
 H          -6.346019      -19.781855       -1.300270
 H          -8.015439      -22.586613       -4.057643
 H          -6.411842      -22.740145       -4.446792
 H          -7.762576      -18.813305       -3.178056
 H          -8.925808      -20.033281       -3.136561
 H          -7.366605      -20.509804       -4.971603
 H          -5.980865      -20.371277       -3.989185
