20
 generated by VMD
 C         -63.048588     -174.877579      -54.797531
 N         -62.963955     -174.294250      -55.782185
 H         -63.978218     -173.323944      -57.864567
 H         -63.197094     -175.308548      -53.832031
 C         -64.154099     -172.375427      -58.358021
 C         -64.419617     -171.116196      -57.633080
 C         -64.370575     -172.235535      -59.794708
 C         -63.849052     -169.885223      -58.279934
 C         -64.009239     -170.916077      -60.454304
 C         -64.415169     -169.729599      -59.602592
 H         -63.902828     -171.053513      -56.589653
 H         -65.510231     -170.984894      -57.494991
 H         -63.912346     -173.001740      -60.477737
 H         -65.418495     -172.372498      -60.106472
 H         -62.668518     -170.012085      -58.319851
 H         -64.021523     -168.985825      -57.623047
 H         -64.411583     -170.843491      -61.460133
 H         -62.929428     -170.983459      -60.473339
 H         -63.918976     -168.846268      -60.149174
 H         -65.487778     -169.525314      -59.586395
