20
 generated by VMD
 C         -49.990135     -143.733093      -44.390606
 N         -49.269287     -143.609848      -45.345860
 H         -52.126499     -142.012131      -45.537033
 H         -50.751312     -143.806808      -43.587261
 C         -52.793262     -141.752960      -46.386257
 C         -52.191681     -141.609543      -47.856606
 C         -54.230434     -141.273849      -46.196445
 C         -53.157204     -142.338745      -48.847027
 C         -55.082951     -141.843048      -47.317730
 C         -54.569950     -141.761307      -48.713062
 H         -51.296970     -142.194092      -47.805912
 H         -52.095448     -140.625488      -48.169807
 H         -54.617748     -141.698044      -45.296051
 H         -54.110996     -140.194977      -46.358120
 H         -53.270523     -143.483749      -48.698685
 H         -52.662766     -142.162582      -49.815258
 H         -56.071491     -141.343292      -47.460590
 H         -55.313530     -142.827820      -46.940239
 H         -55.342510     -142.273499      -49.359470
 H         -54.723774     -140.689026      -49.092201
