20
 generated by VMD
 C         -38.567707      -98.829926      -27.581043
 N         -37.981762      -99.442039      -26.802027
 H         -37.243477      -97.710426      -30.323942
 H         -39.300301      -98.264145      -28.175753
 C         -36.351940      -97.282158      -30.632696
 C         -35.494209      -97.891045      -31.770002
 C         -35.545223      -96.571350      -29.517134
 C         -34.465031      -96.766388      -32.140739
 C         -34.290024      -95.833946      -29.997629
 C         -33.459988      -96.570229      -31.134796
 H         -36.058441      -98.226105      -32.621326
 H         -34.908840      -98.816132      -31.435637
 H         -36.217659      -95.942230      -28.994061
 H         -35.177162      -97.327950      -28.808861
 H         -34.978970      -95.856895      -32.431438
 H         -34.043095      -97.095322      -33.153557
 H         -33.551670      -95.762383      -29.155703
 H         -34.595284      -94.848068      -30.319616
 H         -32.636826      -96.040848      -31.662443
 H         -33.055874      -97.379341      -30.610353
