20
 generated by VMD
 C         -62.493519     -174.173126      -55.063156
 N         -63.656914     -174.122467      -55.338051
 H         -62.294765     -172.446671      -58.044209
 H         -61.467617     -174.195694      -54.690147
 C         -62.968212     -171.740311      -58.494789
 C         -63.298370     -170.545685      -57.489071
 C         -64.185425     -171.992004      -59.375233
 C         -63.749409     -169.238968      -58.338905
 C         -64.598236     -170.694031      -60.128273
 C         -64.936417     -169.540268      -59.267960
 H         -62.368664     -170.309189      -56.781734
 H         -64.149780     -170.833786      -56.890728
 H         -64.114845     -172.925766      -60.042416
 H         -65.043060     -172.362137      -58.748295
 H         -62.885998     -168.951263      -58.911602
 H         -64.104980     -168.508026      -57.700718
 H         -65.504791     -170.819260      -60.749966
 H         -63.726692     -170.297363      -60.766270
 H         -65.138229     -168.663757      -59.934399
 H         -65.865242     -169.730469      -58.660526
