20
 generated by VMD
 C         -31.175682      -79.561272      -26.235449
 N         -30.852692      -78.462570      -26.345757
 H         -28.801561      -81.089096      -25.386028
 H         -31.413260      -80.645004      -26.147310
 C         -28.887644      -81.677032      -24.495201
 C         -27.845800      -81.616943      -23.329584
 C         -29.961151      -82.738075      -24.191278
 C         -28.495680      -81.301559      -22.067745
 C         -30.523205      -82.383270      -22.854403
 C         -29.539114      -82.371246      -21.776249
 H         -27.186197      -80.835716      -23.709772
 H         -27.222454      -82.481308      -23.335842
 H         -30.776251      -82.890335      -24.905993
 H         -29.377645      -83.675774      -24.251816
 H         -29.066273      -80.369125      -22.054983
 H         -27.609520      -81.108398      -21.393108
 H         -31.379126      -83.098320      -22.755699
 H         -30.971804      -81.437157      -22.884748
 H         -30.110500      -82.168243      -20.887709
 H         -29.114777      -83.286644      -21.543360
