20
 generated by VMD
 C         -49.868824     -127.758713      -40.451221
 N         -50.775330     -127.919518      -41.167355
 H         -47.286644     -127.466866      -41.829456
 H         -48.860008     -127.590836      -40.115429
 C         -46.835735     -126.867996      -41.090256
 C         -45.780296     -127.319412      -40.256538
 C         -46.843979     -125.359200      -41.435188
 C         -44.374779     -126.827484      -40.621174
 C         -45.473816     -124.830864      -41.893486
 C         -44.374660     -125.300407      -40.810760
 H         -45.806927     -128.399506      -40.103672
 H         -45.808464     -126.880104      -39.254395
 H         -47.633415     -125.164612      -42.110264
 H         -47.182316     -124.732971      -40.524345
 H         -44.150414     -127.460846      -41.462376
 H         -43.596680     -127.142784      -39.945225
 H         -45.595772     -123.711281      -41.852261
 H         -45.124508     -125.195564      -42.811413
 H         -43.314194     -124.940102      -41.167713
 H         -44.689224     -124.816612      -39.860023
