20
 generated by VMD
 C         -11.312934      -37.425224       -7.124841
 N         -11.443105      -37.765358       -8.188652
 H         -12.433328      -40.490921       -8.260699
 H         -13.649257      -39.889133       -7.192466
 C         -13.476811      -40.431309       -8.099818
 C         -14.041176      -41.832211       -7.958921
 C         -14.227833      -39.629646       -9.167457
 C         -15.551208      -41.884491       -7.817262
 C         -15.733362      -39.690193       -8.934105
 C         -16.237503      -41.080223       -8.932935
 H         -13.765153      -42.226215       -6.971411
 H         -13.730851      -42.464596       -8.815700
 H         -13.875408      -38.560741       -9.090179
 H         -14.038317      -40.070812      -10.166154
 H         -15.851857      -41.463474       -6.803533
 H         -15.792910      -42.943733       -7.915544
 H         -16.139339      -39.085155       -9.811234
 H         -15.984140      -39.175457       -8.063598
 H         -17.289862      -41.138512       -8.715063
 H         -16.058266      -41.539261       -9.875846
