20
 generated by VMD
 C         -68.870071     -184.612808      -66.052872
 N         -69.559860     -185.468155      -66.445557
 H         -69.507339     -183.209610      -63.813488
 H         -68.291565     -183.817596      -65.634216
 C         -69.006081     -183.681198      -62.934780
 C         -69.813171     -184.906067      -62.421101
 C         -68.009705     -183.024078      -62.141212
 C         -68.994942     -185.875504      -61.489861
 C         -67.229057     -184.018295      -61.369240
 C         -68.183716     -184.956436      -60.564114
 H         -70.269005     -185.311264      -63.282589
 H         -70.544006     -184.398270      -61.797676
 H         -67.380730     -182.363998      -62.835342
 H         -68.329758     -182.354568      -61.359131
 H         -68.358635     -186.539017      -62.111725
 H         -69.648567     -186.591675      -60.938274
 H         -66.425949     -183.477142      -60.741493
 H         -66.561707     -184.652222      -62.032837
 H         -67.458687     -185.493790      -60.005245
 H         -68.796837     -184.293961      -59.779144
