20
 generated by VMD
 C         -31.500290      -77.629219      -26.365192
 N         -31.752729      -78.012596      -27.424845
 H         -29.420204      -78.904831      -23.732712
 H         -31.317516      -77.328217      -25.411926
 C         -28.973074      -79.690308      -23.138342
 C         -27.459682      -79.899513      -23.016415
 C         -29.861940      -80.844292      -22.734999
 C         -26.973228      -80.754288      -21.790403
 C         -29.414959      -81.606468      -21.477312
 C         -27.841743      -82.035362      -21.759483
 H         -26.836798      -78.934731      -22.929943
 H         -27.356903      -80.388130      -24.048710
 H         -30.829397      -80.446373      -22.444292
 H         -29.964161      -81.443733      -23.642118
 H         -27.139729      -80.206596      -20.875683
 H         -25.884674      -81.030243      -21.801388
 H         -29.909462      -82.562614      -21.230413
 H         -29.474504      -81.036949      -20.625029
 H         -27.638987      -82.740334      -20.900328
 H         -27.649017      -82.690933      -22.712973
