20
 generated by VMD
 C         -38.284634     -112.782845      -35.999157
 N         -37.514664     -112.233688      -36.688038
 H         -41.211243     -115.052902      -34.950275
 H         -39.208351     -113.043549      -35.423744
 C         -42.100163     -114.708908      -35.390430
 C         -42.011456     -114.529533      -36.918488
 C         -43.133099     -113.800034      -34.725117
 C         -43.380970     -114.842346      -37.453262
 C         -44.529156     -114.031746      -35.380432
 C         -44.486755     -113.906860      -36.928825
 H         -41.162914     -115.159874      -37.305843
 H         -41.666325     -113.415184      -37.087482
 H         -43.290321     -114.070770      -33.689575
 H         -42.651592     -112.811913      -34.626095
 H         -43.693588     -115.823608      -37.056499
 H         -43.524197     -114.930153      -38.550510
 H         -45.361622     -113.478294      -34.873447
 H         -44.809742     -115.136650      -35.266163
 H         -45.486526     -114.225685      -37.455173
 H         -44.131035     -112.951385      -37.305927
