20
 generated by VMD
 C         -29.142687      -88.073975      -25.088984
 N         -28.777363      -87.746071      -26.155247
 H         -31.361176      -90.121658      -27.384476
 H         -29.275465      -88.434761      -24.094227
 C         -32.268719      -89.537872      -27.140331
 C         -32.759083      -89.203346      -25.699863
 C         -33.171074      -89.224640      -28.350451
 C         -33.748409      -87.998123      -25.552561
 C         -34.082649      -87.968513      -28.045237
 C         -34.684055      -87.912964      -26.702488
 H         -31.846640      -88.943222      -25.218460
 H         -33.318069      -90.114830      -25.307894
 H         -32.439621      -89.107666      -29.138279
 H         -33.813282      -90.099785      -28.651545
 H         -33.176174      -86.993172      -25.450157
 H         -34.286514      -88.015617      -24.587786
 H         -34.960106      -87.904778      -28.756626
 H         -33.664692      -86.992439      -28.155605
 H         -35.183071      -86.831505      -26.662216
 H         -35.510498      -88.716675      -26.626688
