20
 generated by VMD
 C         -69.759338     -183.250107      -65.612778
 N         -70.673538     -182.557083      -65.924904
 H         -68.072296     -183.928177      -63.086197
 H         -68.982895     -183.932541      -65.408691
 C         -67.717400     -183.483871      -62.161949
 C         -67.730995     -184.083084      -60.865307
 C         -67.461098     -182.038956      -62.383755
 C         -66.996002     -183.325089      -59.786674
 C         -66.712143     -181.299713      -61.211891
 C         -67.144905     -181.784561      -59.848759
 H         -67.131714     -185.031113      -61.064228
 H         -68.861023     -184.319534      -60.514416
 H         -66.780968     -182.026321      -63.348129
 H         -68.206894     -181.352295      -62.648624
 H         -65.969124     -183.492020      -59.820351
 H         -67.376762     -183.638336      -58.857590
 H         -66.707207     -180.252350      -61.488533
 H         -65.625069     -181.523605      -61.246685
 H         -66.518318     -181.278992      -59.013908
 H         -68.227882     -181.582764      -59.831348
