20
 generated by VMD
 C         -20.287395      -61.542046      -16.626245
 N         -19.532131      -61.070114      -17.367096
 H         -21.676704      -64.891396      -17.197615
 H         -20.811342      -61.958836      -15.834317
 C         -22.690399      -64.503380      -17.172112
 C         -23.198736      -64.096016      -18.508129
 C         -23.557074      -64.703850      -15.911382
 C         -24.565496      -64.612869      -18.792101
 C         -24.857130      -65.379318      -16.398487
 C         -25.512451      -64.552032      -17.552797
 H         -22.486530      -64.434807      -19.265049
 H         -23.106718      -63.049118      -18.580212
 H         -23.056845      -65.481552      -15.271646
 H         -23.744555      -63.803978      -15.351301
 H         -24.518379      -65.675812      -19.041782
 H         -25.103493      -64.004128      -19.583376
 H         -25.547049      -65.630508      -15.566944
 H         -24.537090      -66.349457      -16.779470
 H         -26.474951      -65.128761      -17.898195
 H         -25.708496      -63.480873      -17.296505
