20
 generated by VMD
 C          -9.381071      -24.861446        0.738646
 N         -10.153684      -25.405945        1.340028
 H          -6.854440      -23.046059       -0.562390
 H          -8.246499      -22.593460       -1.481635
 C          -7.219863      -23.044968       -1.648030
 C          -7.318908      -24.397890       -2.307203
 C          -6.442896      -22.081377       -2.557538
 C          -8.087183      -24.247946       -3.645718
 C          -7.111715      -21.961500       -3.832768
 C          -7.384864      -23.250263       -4.550571
 H          -7.887643      -25.101580       -1.629199
 H          -6.345230      -24.787695       -2.645264
 H          -6.297155      -21.122021       -2.107886
 H          -5.480927      -22.600937       -2.658508
 H          -9.060847      -23.798302       -3.445588
 H          -8.111476      -25.262514       -4.151346
 H          -6.487324      -21.375395       -4.520010
 H          -8.055236      -21.386011       -3.660447
 H          -7.962046      -23.066763       -5.401640
 H          -6.429611      -23.608574       -4.925338
