20
 generated by VMD
 C         -30.979567      -75.531914      -23.364922
 N         -30.887186      -75.955376      -24.435625
 H         -29.325804      -78.807129      -21.880932
 H         -30.851364      -75.253807      -22.384926
 C         -28.380568      -78.363609      -21.806353
 C         -27.476639      -78.335381      -23.028770
 C         -27.796589      -77.817642      -20.489502
 C         -26.651182      -77.101906      -23.032671
 C         -26.786169      -76.744171      -20.628149
 C         -25.856909      -76.935066      -21.765398
 H         -28.105467      -78.361710      -23.954987
 H         -27.013475      -79.244926      -23.263622
 H         -28.685379      -77.486496      -19.877617
 H         -27.399237      -78.650314      -19.901894
 H         -27.171436      -76.179276      -23.271370
 H         -25.938431      -77.149605      -23.859430
 H         -26.288902      -76.819344      -19.587700
 H         -27.272324      -75.708435      -20.641417
 H         -25.149086      -76.054047      -21.877478
 H         -25.313135      -77.835915      -21.559856
