20
 generated by VMD
 C         -20.970877      -52.317230       -9.605574
 N         -21.301989      -52.292309      -10.721637
 H         -19.306036      -49.675243      -12.063158
 H         -20.381313      -51.943115       -8.495559
 C         -18.276279      -50.002338      -12.169161
 C         -17.856140      -51.384281      -12.547276
 C         -17.276728      -48.934582      -12.189331
 C         -16.773939      -51.292820      -13.687425
 C         -16.595467      -48.851318      -13.586534
 C         -15.782669      -50.132355      -13.822367
 H         -18.645346      -52.035278      -12.899115
 H         -17.487776      -51.936901      -11.616693
 H         -17.815969      -47.996094      -11.935277
 H         -16.556128      -49.140259      -11.401241
 H         -17.309826      -51.152370      -14.628044
 H         -16.222567      -52.220654      -13.717433
 H         -15.773603      -48.036057      -13.555676
 H         -17.278940      -48.679028      -14.418164
 H         -15.368591      -50.065811      -14.813933
 H         -14.962979      -50.215939      -13.147118
