20
 generated by VMD
 C         -33.412560      -96.617233      -25.359467
 N         -32.672886      -96.758118      -24.473555
 H         -34.534954      -93.862885      -27.436262
 H         -34.107979      -96.457352      -26.088560
 C         -34.730701      -93.499634      -28.420948
 C         -36.028622      -93.578804      -29.104029
 C         -33.596939      -93.191124      -29.305573
 C         -36.225471      -92.823647      -30.433008
 C         -33.807980      -92.274040      -30.534637
 C         -35.003437      -92.988678      -31.371393
 H         -36.844742      -93.371971      -28.311401
 H         -36.121525      -94.611549      -29.445627
 H         -32.781250      -92.664314      -28.715509
 H         -33.219196      -94.169922      -29.656010
 H         -36.370743      -91.698952      -30.470018
 H         -37.106064      -93.155319      -30.977039
 H         -32.870979      -92.230843      -31.214956
 H         -33.903503      -91.258812      -30.218857
 H         -35.115910      -92.556114      -32.325829
 H         -34.509991      -94.014725      -31.541149
