20
 generated by VMD
 C          -9.298299      -24.531710        1.140942
 N          -9.770540      -25.348080        1.755298
 H          -6.867585      -23.128828       -0.706742
 H          -8.390862      -22.682201       -1.436910
 C          -7.399303      -23.016735       -1.634102
 C          -7.477261      -24.342484       -2.457094
 C          -6.580285      -21.918766       -2.403900
 C          -8.020506      -24.096199       -3.928514
 C          -7.110042      -21.727259       -3.827649
 C          -7.020008      -23.062258       -4.613410
 H          -8.241803      -25.078260       -1.989193
 H          -6.461940      -24.814199       -2.525611
 H          -6.628662      -20.990088       -1.782903
 H          -5.531834      -22.191437       -2.344668
 H          -9.037149      -23.726147       -3.929436
 H          -7.935445      -25.004816       -4.470863
 H          -6.442719      -20.990320       -4.287313
 H          -8.110915      -21.309399       -3.925883
 H          -7.291712      -22.813828       -5.674907
 H          -6.020365      -23.475990       -4.769930
