20
 generated by VMD
 C         -32.191940      -94.186775      -25.365002
 N         -33.252495      -94.691513      -25.389528
 H         -33.920334      -95.026878      -28.526306
 H         -31.179583      -93.822845      -25.212254
 C         -34.254250      -94.078407      -28.900261
 C         -35.680523      -93.570709      -28.623522
 C         -33.477699      -93.478577      -30.064764
 C         -35.749584      -92.079948      -28.618677
 C         -33.560211      -92.018898      -30.077898
 C         -34.997009      -91.506264      -29.818964
 H         -35.922127      -93.995247      -27.689777
 H         -36.316254      -94.073074      -29.348368
 H         -32.447285      -93.826584      -29.994373
 H         -33.803310      -93.881516      -31.052128
 H         -35.249538      -91.718460      -27.697233
 H         -36.753872      -91.822678      -28.513380
 H         -33.109085      -91.468689      -30.951239
 H         -33.046997      -91.620895      -29.211853
 H         -35.036114      -90.454430      -29.694111
 H         -35.565620      -91.840820      -30.699484
