20
 generated by VMD
 C         -30.307991      -92.718307      -25.803953
 N         -29.605543      -92.408035      -24.904510
 H         -32.572956      -89.661331      -26.512678
 H         -30.809597      -92.867485      -26.687490
 C         -33.257679      -90.054810      -27.320326
 C         -34.020748      -91.274147      -27.073195
 C         -33.457413      -89.284981      -28.528265
 C         -35.368397      -91.319000      -27.819109
 C         -34.829323      -89.431465      -29.219973
 C         -35.240795      -90.872063      -29.313192
 H         -34.367748      -91.344254      -26.054195
 H         -33.665264      -92.162323      -27.480797
 H         -33.107513      -88.341919      -28.289324
 H         -32.747089      -89.743248      -29.124897
 H         -36.040150      -90.597488      -27.325623
 H         -35.879986      -92.315506      -27.708212
 H         -34.781162      -88.898125      -30.204758
 H         -35.474396      -88.914024      -28.519222
 H         -36.131508      -90.832466      -29.975368
 H         -34.439201      -91.526131      -29.818060
