20
 generated by VMD
 C         -12.478031      -28.447840       -5.882262
 N         -13.284023      -27.693058       -5.731173
 H         -11.585164      -31.693878       -3.768328
 H         -11.508747      -30.252872       -4.688109
 C         -10.818583      -30.972925       -4.145713
 C          -9.790331      -31.683483       -4.998686
 C         -10.272508      -30.272924       -2.929094
 C          -8.554426      -30.788708       -5.259187
 C          -9.070043      -29.423782       -3.216875
 C          -8.023731      -30.142990       -4.029329
 H         -10.175448      -31.918238       -5.973392
 H          -9.513739      -32.633934       -4.505307
 H         -11.088552      -29.619703       -2.559522
 H         -10.070641      -31.004765       -2.168554
 H          -8.910735      -30.014244       -5.888527
 H          -7.781933      -31.355570       -5.718774
 H          -8.610641      -28.996981       -2.288911
 H          -9.401471      -28.524021       -3.752373
 H          -7.298507      -29.307528       -4.316457
 H          -7.582606      -30.958975       -3.425623
