20
 generated by VMD
 C         -23.304897      -53.474167      -14.311632
 N         -24.162285      -53.257607      -15.024353
 H         -20.554255      -55.675270      -14.804998
 H         -22.472456      -53.510563      -13.894575
 C         -19.589264      -55.436035      -14.566829
 C         -19.320890      -54.331619      -13.662197
 C         -18.493052      -56.381954      -14.947638
 C         -18.126078      -54.460331      -12.675443
 C         -17.895111      -56.832405      -13.661545
 C         -17.167889      -55.684795      -12.919971
 H         -20.187939      -54.180664      -12.976394
 H         -19.009109      -53.453659      -14.280086
 H         -18.880400      -57.200176      -15.538762
 H         -17.744461      -55.806683      -15.634027
 H         -18.583546      -54.390110      -11.712128
 H         -17.464914      -53.582882      -12.738017
 H         -17.158007      -57.583141      -13.850453
 H         -18.683802      -57.306946      -13.023015
 H         -16.844261      -56.047405      -11.928711
 H         -16.163084      -55.414021      -13.368358
