20
 generated by VMD
 C         -38.010410     -109.777191      -36.392715
 N         -37.422386     -108.865051      -35.925564
 H         -40.346142     -112.662056      -36.586082
 H         -38.436768     -110.603264      -36.862747
 C         -41.346680     -112.668053      -36.151424
 C         -42.346428     -113.605896      -36.553268
 C         -41.726421     -111.489265      -35.281399
 C         -43.070358     -114.052963      -35.235298
 C         -42.316116     -112.021950      -33.984592
 C         -43.486298     -112.919594      -34.287540
 H         -41.855721     -114.508347      -36.938896
 H         -43.169903     -113.187172      -37.201874
 H         -40.675491     -111.119987      -35.157440
 H         -42.211876     -110.850067      -36.017113
 H         -42.510098     -114.924423      -34.744961
 H         -44.032219     -114.672409      -35.520412
 H         -42.496456     -111.098145      -33.353230
 H         -41.726349     -112.768532      -33.328796
 H         -43.830166     -113.323692      -33.418972
 H         -44.359596     -112.433968      -34.788834
