20
 generated by VMD
 C         -31.509569      -77.608818      -26.301861
 N         -31.725704      -78.017822      -27.364670
 H         -29.193541      -79.195305      -24.148504
 H         -30.956022      -77.376587      -25.318499
 C         -28.957151      -79.666313      -23.171928
 C         -27.472549      -79.870842      -23.005745
 C         -29.849127      -80.796791      -22.670666
 C         -27.101225      -80.723717      -21.808464
 C         -29.235914      -81.566612      -21.484394
 C         -27.898930      -81.974335      -21.770216
 H         -27.113258      -78.835503      -22.948008
 H         -26.851156      -80.352432      -23.822170
 H         -30.802637      -80.439293      -22.532337
 H         -29.926016      -81.618774      -23.457060
 H         -27.178129      -80.078751      -20.872736
 H         -26.012712      -80.962059      -21.983370
 H         -29.949446      -82.338501      -21.313581
 H         -29.245598      -80.973404      -20.571333
 H         -27.395334      -82.683228      -21.088167
 H         -27.923023      -82.469360      -22.702377
