20
 generated by VMD
 C         -27.787252      -81.175232      -27.480848
 N         -28.930473      -81.371582      -27.550638
 H         -29.543571      -83.476608      -25.258631
 H         -26.661535      -80.951134      -27.657665
 C         -30.376638      -83.917717      -24.697887
 C         -30.344183      -84.079796      -23.228607
 C         -31.124828      -84.863464      -25.460062
 C         -31.758047      -84.377769      -22.637674
 C         -32.479256      -85.413490      -24.798084
 C         -32.263023      -85.737244      -23.281965
 H         -29.677830      -83.243935      -22.842625
 H         -29.648226      -84.923210      -23.147621
 H         -31.308044      -84.601433      -26.478502
 H         -30.467663      -85.757774      -25.577209
 H         -32.415863      -83.513733      -22.871765
 H         -31.628468      -84.624672      -21.553398
 H         -32.807556      -86.396408      -25.264864
 H         -33.306889      -84.678177      -24.910503
 H         -33.117928      -86.052597      -22.709511
 H         -31.439287      -86.461594      -23.005156
