20
 generated by VMD
 C         -46.709213     -124.734322      -37.750660
 N         -46.916714     -124.501282      -36.628670
 H         -44.835983     -122.644836      -37.886059
 H         -46.362438     -124.615883      -38.726944
 C         -44.790028     -122.356712      -38.905056
 C         -43.510677     -122.252052      -39.546726
 C         -45.915646     -121.483009      -39.416794
 C         -43.740734     -122.530350      -41.059082
 C         -46.064938     -121.760620      -40.895489
 C         -44.744183     -121.642502      -41.623402
 H         -42.887821     -123.073471      -39.003662
 H         -42.986027     -121.321953      -39.345360
 H         -46.824802     -121.539948      -38.812904
 H         -45.503670     -120.460938      -39.352501
 H         -44.272884     -123.506165      -41.023788
 H         -42.859848     -122.355240      -41.619415
 H         -46.897495     -121.175659      -41.316006
 H         -46.468597     -122.858978      -40.851780
 H         -44.887039     -121.852127      -42.697525
 H         -44.336155     -120.655060      -41.545780
