20
 generated by VMD
 C         -62.514595     -174.190628      -55.033791
 N         -63.631260     -174.124680      -55.357681
 H         -62.251316     -172.488190      -58.101948
 H         -61.502941     -174.299210      -54.668922
 C         -62.957115     -171.737595      -58.497730
 C         -63.335712     -170.584122      -57.518059
 C         -64.194199     -172.011505      -59.347710
 C         -63.734661     -169.266205      -58.321354
 C         -64.607910     -170.698318      -60.155800
 C         -64.944984     -169.540131      -59.265919
 H         -62.629448     -170.311478      -56.849186
 H         -64.318596     -170.814560      -56.932526
 H         -64.004440     -172.825104      -60.113224
 H         -65.103333     -172.181839      -58.761246
 H         -62.827152     -169.045349      -58.923080
 H         -64.007423     -168.362167      -57.649429
 H         -65.421448     -170.812607      -60.891582
 H         -63.749382     -170.406097      -60.737846
 H         -65.042206     -168.632324      -59.864059
 H         -65.871895     -169.699890      -58.776173
