20
 generated by VMD
 C         -16.627897      -47.730381       -7.290264
 N         -16.275480      -46.669365       -7.241135
 H         -16.851465      -48.343849      -10.323094
 H         -15.563068      -48.061749      -11.489742
 C         -16.517853      -47.713310      -11.105823
 C         -16.205687      -46.352737      -10.468095
 C         -17.460423      -47.840767      -12.315092
 C         -15.853623      -45.440426      -11.645333
 C         -17.011745      -46.873428      -13.349523
 C         -16.837381      -45.495724      -12.782828
 H         -15.326200      -46.454060       -9.808344
 H         -17.018124      -45.946060       -9.813347
 H         -17.570929      -48.862980      -12.685925
 H         -18.514421      -47.575150      -12.068812
 H         -14.814881      -45.679131      -11.962843
 H         -15.746855      -44.405342      -11.277150
 H         -17.813009      -46.901150      -14.164602
 H         -16.078362      -47.144058      -13.851254
 H         -16.598593      -44.760975      -13.545440
 H         -17.836472      -45.091110      -12.447038
