20
 generated by VMD
 C         -31.868456      -76.062202      -24.232285
 N         -31.280323      -76.434120      -25.131708
 H         -29.742451      -77.763580      -22.382128
 H         -32.155415      -75.591553      -23.193497
 C         -28.644596      -77.890038      -22.162992
 C         -27.606890      -78.179794      -23.306910
 C         -28.310410      -78.369019      -20.800844
 C         -26.196226      -77.919975      -22.877272
 C         -26.855413      -77.996750      -20.371563
 C         -25.798878      -78.379128      -21.460234
 H         -27.767269      -77.548973      -24.176590
 H         -27.776789      -79.232529      -23.739187
 H         -28.905956      -78.038887      -19.953524
 H         -28.524681      -79.431419      -20.722300
 H         -26.075712      -76.856796      -22.976955
 H         -25.533833      -78.491615      -23.528957
 H         -26.563414      -78.576485      -19.393972
 H         -26.894466      -76.873985      -20.047857
 H         -24.971952      -77.752785      -21.191195
 H         -25.447865      -79.456879      -21.431332
