20
 generated by VMD
 C         -46.772633     -125.162392      -38.303684
 N         -47.677711     -124.893318      -37.622772
 H         -44.703106     -122.213432      -37.673019
 H         -45.899307     -125.061905      -38.928265
 C         -44.754192     -122.293938      -38.749367
 C         -43.553974     -122.583481      -39.579517
 C         -45.726723     -121.407341      -39.458241
 C         -43.856304     -123.222633      -40.816025
 C         -46.203735     -122.085159      -40.719193
 C         -44.951984     -122.400543      -41.610554
 H         -42.845661     -123.397011      -39.111916
 H         -43.030079     -121.638481      -39.644726
 H         -46.552761     -121.135788      -38.837177
 H         -45.188351     -120.403580      -39.729168
 H         -44.419266     -124.247673      -40.805046
 H         -42.997906     -123.598747      -41.409279
 H         -46.776142     -121.321884      -41.185360
 H         -46.748302     -122.926712      -40.600319
 H         -45.238995     -122.853355      -42.596546
 H         -44.484459     -121.454491      -41.801796
