20
 generated by VMD
 C         -24.401234      -69.987312      -16.504673
 N         -24.536297      -70.445389      -15.470050
 H         -23.558384      -67.405663      -19.242363
 H         -24.486347      -69.562721      -17.590748
 C         -24.393080      -67.978416      -19.655825
 C         -23.785961      -68.726700      -20.859259
 C         -25.903893      -67.683281      -19.407724
 C         -24.634539      -69.901321      -21.172564
 C         -26.657282      -68.940491      -19.894531
 C         -26.128651      -69.518982      -21.158127
 H         -22.792198      -68.943665      -20.666811
 H         -23.688078      -68.160889      -21.771885
 H         -26.082260      -67.634453      -18.339491
 H         -26.104683      -66.810486      -20.081390
 H         -24.566790      -70.718819      -20.505350
 H         -24.411552      -70.262978      -22.209131
 H         -27.749304      -68.669296      -19.868685
 H         -26.641386      -69.682159      -19.037701
 H         -26.688818      -70.435608      -21.309402
 H         -26.162321      -68.832275      -21.981777
