20
 generated by VMD
 C          -2.004755      -13.488621        0.681984
 N          -1.655217      -13.070351        1.652672
 H          -3.538422      -16.873777        1.587404
 H          -4.140363      -16.522333       -0.129084
 C          -4.429781      -16.714893        0.919688
 C          -5.210767      -15.500162        1.396956
 C          -5.277404      -17.993145        0.968669
 C          -6.369822      -15.228214        0.516174
 C          -6.595666      -17.824755        0.138239
 C          -7.298392      -16.477535        0.395085
 H          -4.594543      -14.651826        1.421340
 H          -5.432142      -15.655217        2.473300
 H          -4.658006      -18.913847        0.506763
 H          -5.664153      -18.260508        2.021677
 H          -6.162230      -14.979209       -0.570513
 H          -6.976330      -14.350300        0.841062
 H          -7.295051      -18.670067        0.302920
 H          -6.354074      -17.830992       -0.925962
 H          -8.145329      -16.249401       -0.274710
 H          -7.770442      -16.584785        1.376891
