20
 generated by VMD
 C         -13.681916      -43.905422       -6.754678
 N         -13.558720      -43.866932       -5.657586
 H         -14.812029      -44.776791       -9.056292
 H         -14.346402      -43.847050      -10.351075
 C         -15.211905      -44.426495      -10.002189
 C         -16.326252      -43.490498       -9.690673
 C         -15.621643      -45.555309      -10.919368
 C         -16.968239      -42.945820      -10.963340
 C         -16.047647      -44.891071      -12.253152
 C         -17.185913      -43.910526      -12.127760
 H         -15.980769      -42.791595       -8.946904
 H         -17.157187      -44.010231       -9.184447
 H         -14.845627      -46.285660      -11.084768
 H         -16.368807      -46.245327      -10.511354
 H         -16.325130      -42.138744      -11.351848
 H         -17.927439      -42.473766      -10.648836
 H         -16.326180      -45.619919      -13.017878
 H         -15.111394      -44.458099      -12.636330
 H         -17.249403      -43.338421      -13.024982
 H         -18.104664      -44.484234      -12.026963
