20
 generated by VMD
 C         -21.735960      -66.279633      -16.631887
 N         -20.875172      -66.747147      -16.050959
 H         -24.253685      -64.037064      -18.598042
 H         -22.695345      -65.658226      -16.908260
 C         -24.519438      -65.142387      -18.648144
 C         -24.456974      -65.658394      -20.040539
 C         -25.352943      -65.907204      -17.655418
 C         -24.301826      -67.215576      -20.050837
 C         -25.714914      -67.386078      -17.962437
 C         -25.484833      -67.914337      -19.359135
 H         -23.456711      -65.243484      -20.520540
 H         -25.206890      -65.264069      -20.672544
 H         -24.980024      -65.902786      -16.657740
 H         -26.271606      -65.318581      -17.670483
 H         -23.378666      -67.460869      -19.444719
 H         -24.047346      -67.566582      -21.126726
 H         -26.748104      -67.641037      -17.726637
 H         -25.087202      -68.063797      -17.284332
 H         -25.271729      -68.963104      -19.298660
 H         -26.381306      -67.792244      -19.957434
