20
 generated by VMD
 C         -79.485756     -206.293243      -74.992500
 N         -79.651543     -206.428192      -73.883301
 H         -78.573669     -206.810059      -71.234970
 H         -79.615700     -206.300369      -76.093117
 C         -77.626083     -206.694244      -70.729828
 C         -76.542641     -205.726608      -71.241814
 C         -77.304688     -207.929016      -69.820953
 C         -75.312134     -205.769440      -70.379662
 C         -75.954811     -207.803833      -69.140587
 C         -74.991890     -207.157211      -70.062759
 H         -77.092720     -204.754776      -71.525116
 H         -76.218628     -206.223343      -72.236656
 H         -78.058777     -208.219391      -69.119904
 H         -77.147659     -208.730804      -70.590721
 H         -75.365196     -205.222137      -69.444298
 H         -74.485474     -205.257584      -70.942955
 H         -75.617035     -208.766113      -68.720421
 H         -76.122543     -207.235870      -68.205307
 H         -73.935631     -207.218018      -69.648140
 H         -74.831909     -207.842010      -70.904488
