20
 generated by VMD
 C         -51.354004     -129.749069      -45.239483
 N         -51.665398     -130.079544      -46.287365
 H         -48.512989     -130.193726      -43.626144
 H         -51.173767     -129.400604      -44.210979
 C         -47.977932     -130.418594      -42.632675
 C         -48.125340     -131.764725      -41.924992
 C         -47.596066     -129.288864      -41.740196
 C         -46.787552     -132.117538      -41.095387
 C         -46.317539     -129.580887      -40.944424
 C         -46.401825     -130.879089      -40.193871
 H         -48.262260     -132.658539      -42.674385
 H         -48.961018     -131.655731      -41.318970
 H         -47.529419     -128.376297      -42.336468
 H         -48.452972     -128.959152      -41.022686
 H         -45.960335     -132.213196      -41.878639
 H         -47.115337     -133.039078      -40.626011
 H         -46.121677     -128.748886      -40.203255
 H         -45.465321     -129.678299      -41.518166
 H         -45.512825     -131.231354      -39.693710
 H         -47.042431     -130.822952      -39.291679
