20
 generated by VMD
 C         -51.001644     -145.136261      -44.565933
 N         -51.002079     -146.263626      -44.498032
 H         -53.152927     -144.238571      -46.374496
 H         -50.809135     -144.055847      -44.642025
 C         -53.479198     -143.660202      -47.217613
 C         -52.666080     -143.721878      -48.413368
 C         -54.759598     -142.952499      -47.230190
 C         -53.444679     -143.710571      -49.704769
 C         -55.424458     -142.773911      -48.503830
 C         -54.478035     -142.528214      -49.646095
 H         -52.061222     -144.717804      -48.491779
 H         -51.872150     -142.993607      -48.436649
 H         -55.329277     -143.533890      -46.511066
 H         -54.527592     -141.808487      -46.908321
 H         -54.053421     -144.573303      -49.897171
 H         -52.678123     -143.513214      -50.458805
 H         -56.210823     -141.988922      -48.513912
 H         -55.918575     -143.661423      -48.691559
 H         -54.966427     -142.365799      -50.610580
 H         -53.839138     -141.580856      -49.585136
