20
 generated by VMD
 C         -23.656250      -69.347382      -16.745201
 N         -24.061066      -69.909081      -15.797553
 H         -23.909878      -66.862602      -18.698273
 H         -23.474482      -68.812698      -17.733315
 C         -24.389738      -67.486023      -19.420778
 C         -23.789585      -68.147377      -20.650698
 C         -26.017014      -67.393166      -19.292921
 C         -24.534052      -69.551170      -20.785082
 C         -26.664570      -68.702003      -19.491159
 C         -26.042105      -69.339981      -20.738308
 H         -22.723963      -68.278137      -20.477547
 H         -23.878000      -67.338898      -21.563383
 H         -26.124699      -66.934959      -18.305548
 H         -26.400829      -66.678841      -20.002859
 H         -24.188793      -70.107521      -19.941296
 H         -24.141119      -70.054688      -21.705055
 H         -27.719872      -68.661682      -19.647823
 H         -26.632704      -69.388130      -18.685934
 H         -26.515429      -70.381310      -20.790850
 H         -26.336853      -68.686646      -21.574413
