20
 generated by VMD
 C         -63.363377     -174.839081      -55.372620
 N         -62.632965     -174.364807      -56.119755
 H         -65.190125     -173.332230      -57.804665
 H         -64.049484     -175.193161      -54.611725
 C         -64.783043     -172.457031      -58.328716
 C         -64.810524     -171.130402      -57.579697
 C         -64.512848     -172.493637      -59.752037
 C         -64.050423     -170.042847      -58.205742
 C         -63.543396     -171.376389      -60.159733
 C         -64.030502     -170.050629      -59.741329
 H         -64.428101     -171.379669      -56.616058
 H         -65.927948     -171.025909      -57.391090
 H         -64.088173     -173.502106      -59.960011
 H         -65.489563     -172.357330      -60.153568
 H         -62.902702     -169.980377      -57.855717
 H         -64.497993     -169.051285      -57.912231
 H         -63.510010     -171.254608      -61.266094
 H         -62.544323     -171.527176      -59.811619
 H         -63.321712     -169.221832      -60.082077
 H         -65.047279     -169.753494      -60.102085
