20
 generated by VMD
 C         -38.662216      -98.901070      -27.414646
 N         -37.902882      -99.387421      -26.704100
 H         -37.224686      -97.176468      -30.435587
 H         -39.493702      -98.592773      -28.109482
 C         -36.206539      -97.148720      -30.550322
 C         -35.587387      -97.672859      -31.855835
 C         -35.356342      -96.585556      -29.411097
 C         -34.297871      -96.925743      -32.278683
 C         -34.397949      -95.627457      -30.040695
 C         -33.539635      -96.405701      -31.119707
 H         -36.401978      -97.613876      -32.586411
 H         -35.366875      -98.798080      -31.664631
 H         -35.930126      -96.022858      -28.660645
 H         -34.839848      -97.434639      -28.903275
 H         -34.443134      -96.066017      -32.826668
 H         -33.593590      -97.656479      -32.764938
 H         -33.682076      -95.369324      -29.172194
 H         -34.884632      -94.695061      -30.347500
 H         -32.724606      -95.848053      -31.554989
 H         -33.062054      -97.255051      -30.537600
