20
 generated by VMD
 C          -8.985088      -23.698635        2.695032
 N          -8.335750      -24.584475        2.818680
 H          -8.390976      -23.423506       -1.215938
 H          -9.208130      -22.596556       -2.605115
 C          -8.291874      -23.006573       -2.228096
 C          -7.666407      -24.064852       -3.180577
 C          -7.337387      -21.797892       -2.090215
 C          -7.283535      -23.391579       -4.544502
 C          -6.912904      -21.217569       -3.390893
 C          -6.312504      -22.212133       -4.318904
 H          -8.496608      -24.759996       -3.407021
 H          -6.803559      -24.565926       -2.809578
 H          -7.802239      -20.967745       -1.487362
 H          -6.470447      -22.042793       -1.455844
 H          -8.145235      -23.057001       -5.144357
 H          -6.786289      -24.140770       -5.131342
 H          -6.101478      -20.462709       -3.244704
 H          -7.739465      -20.619818       -3.810568
 H          -6.138616      -21.763271       -5.340559
 H          -5.283196      -22.486563       -4.003671
