20
 generated by VMD
 C         -79.378578     -205.482117      -70.905724
 N         -80.369202     -205.886078      -71.284286
 H         -77.046989     -203.226730      -71.028900
 H         -78.496315     -205.103317      -70.536659
 C         -76.178886     -203.283508      -70.376801
 C         -75.301743     -202.045593      -70.132248
 C         -75.796875     -204.571609      -69.768150
 C         -73.905327     -202.498077      -70.572556
 C         -74.407631     -204.535629      -69.028320
 C         -73.331673     -203.668716      -69.820602
 H         -75.171509     -201.798645      -69.089615
 H         -75.676239     -201.179703      -70.721695
 H         -76.686073     -204.926010      -69.185158
 H         -75.591675     -205.268570      -70.625793
 H         -73.223015     -201.624237      -70.553040
 H         -73.978493     -202.639984      -71.689178
 H         -74.011078     -205.640060      -68.984161
 H         -74.527954     -204.230698      -68.031372
 H         -72.461571     -203.337051      -69.052376
 H         -72.933311     -204.445465      -70.520012
