20
 generated by VMD
 C         -50.470951     -129.312637      -43.535507
 N         -50.843819     -129.627808      -44.635506
 H         -48.924397     -127.886749      -40.491642
 H         -49.942303     -128.933807      -42.676014
 C         -47.892353     -128.110016      -40.568657
 C         -47.302029     -129.526550      -40.333942
 C         -46.905220     -126.996132      -40.647999
 C         -46.263924     -129.785934      -41.449879
 C         -45.877922     -127.343468      -41.703892
 C         -45.258228     -128.677536      -41.497467
 H         -48.057144     -130.372574      -40.455425
 H         -46.856560     -129.482773      -39.322067
 H         -47.436440     -125.956963      -40.947407
 H         -46.568439     -126.862335      -39.648724
 H         -46.936203     -129.805725      -42.360870
 H         -45.739719     -130.657120      -40.994984
 H         -44.984104     -126.685173      -41.691444
 H         -46.408485     -127.353149      -42.735142
 H         -44.446857     -128.768219      -42.301937
 H         -44.621899     -128.691162      -40.568417
