20
 generated by VMD
 C         -11.237797      -25.914104       -0.849903
 N         -10.976343      -24.859970       -0.557434
 H          -7.496023      -25.914665       -0.930432
 H          -8.921341      -25.425884       -1.821889
 C          -7.844792      -25.469950       -1.894063
 C          -7.367562      -26.282429       -3.040943
 C          -7.304147      -24.003376       -2.039365
 C          -7.713327      -25.676538       -4.375485
 C          -7.625330      -23.296457       -3.353910
 C          -7.211871      -24.221676       -4.501733
 H          -7.886804      -27.205446       -3.018225
 H          -6.307475      -26.385029       -3.002616
 H          -7.724146      -23.392870       -1.216534
 H          -6.228671      -24.121801       -1.871058
 H          -8.793571      -25.675306       -4.370924
 H          -7.299212      -26.308136       -5.141057
 H          -7.149553      -22.286072       -3.431985
 H          -8.715956      -23.065994       -3.379324
 H          -7.491318      -23.760427       -5.497468
 H          -6.092572      -24.230597       -4.591915
