20
 generated by VMD
 C         -12.899267      -28.070503       -4.032700
 N         -13.873232      -27.612698       -4.346843
 H         -10.585099      -29.258644       -2.724015
 H         -10.353058      -27.797104       -3.599184
 C          -9.797482      -28.663790       -3.201804
 C          -9.362351      -29.524078       -4.404634
 C          -8.642901      -28.117479       -2.420673
 C          -8.279224      -28.881136       -5.190431
 C          -7.641352      -27.478241       -3.271329
 C          -7.134957      -28.425692       -4.304938
 H         -10.266692      -29.829405       -4.973395
 H          -9.020271      -30.488012       -3.997866
 H          -8.949623      -27.463919       -1.610862
 H          -8.126660      -28.932276       -1.838526
 H          -8.649502      -28.001841       -5.737143
 H          -7.812113      -29.555490       -5.900362
 H          -6.793156      -27.066711       -2.654325
 H          -8.054823      -26.587593       -3.724477
 H          -6.385532      -27.979050       -4.930515
 H          -6.811852      -29.407196       -3.877290
