20
 generated by VMD
 C         -38.333714     -112.753372      -36.038403
 N         -37.442314     -112.298752      -36.665813
 H         -41.314369     -114.945221      -34.768616
 H         -39.022526     -113.353600      -35.511288
 C         -42.074055     -114.664314      -35.386604
 C         -42.023514     -114.563362      -36.870247
 C         -43.193851     -113.897621      -34.702217
 C         -43.428101     -114.879318      -37.524250
 C         -44.550983     -114.087112      -35.379181
 C         -44.469784     -113.921539      -36.976036
 H         -41.298641     -115.324806      -37.290188
 H         -41.682083     -113.478119      -37.188107
 H         -43.142204     -114.138481      -33.640133
 H         -43.129791     -112.825882      -34.950233
 H         -43.673824     -115.974960      -37.413479
 H         -43.213882     -114.697914      -38.581764
 H         -45.163845     -113.185074      -35.020794
 H         -44.943451     -115.081161      -35.055679
 H         -45.534122     -114.132034      -37.397255
 H         -44.369480     -112.867203      -37.159351
