20
 generated by VMD
 C         -36.648811      -98.260796      -26.203775
 N         -37.524590      -98.361397      -26.981949
 H         -36.578785      -96.214226      -28.894255
 H         -35.773422      -98.178696      -25.635410
 C         -35.642677      -95.970520      -29.396065
 C         -35.499310      -96.854713      -30.720697
 C         -34.439957      -95.183937      -29.082811
 C         -35.117287      -95.992592      -31.914085
 C         -33.985741      -94.350952      -30.259512
 C         -33.863869      -95.201286      -31.523857
 H         -36.346268      -97.481194      -30.843189
 H         -34.649139      -97.551888      -30.570356
 H         -34.577530      -94.556587      -28.185787
 H         -33.736744      -96.022667      -28.751987
 H         -35.915451      -95.366127      -32.263252
 H         -34.941105      -96.750664      -32.743908
 H         -33.006741      -93.918015      -30.120062
 H         -34.737175      -93.582207      -30.474655
 H         -33.791119      -94.548302      -32.474621
 H         -33.101665      -95.783363      -31.614178
