20
 generated by VMD
 C         -23.233707      -53.605839      -14.547610
 N         -24.193043      -53.318851      -15.039709
 H         -20.586018      -55.511513      -14.919348
 H         -22.190224      -53.903732      -13.897388
 C         -19.642231      -55.444328      -14.579725
 C         -19.275793      -54.294926      -13.610474
 C         -18.592850      -56.372574      -14.911462
 C         -18.161825      -54.593502      -12.629167
 C         -17.928038      -56.967720      -13.730034
 C         -17.252653      -55.829277      -12.918265
 H         -20.218552      -53.958336      -13.180058
 H         -19.104298      -53.372101      -14.214560
 H         -19.043690      -57.115147      -15.564903
 H         -17.766979      -55.826611      -15.518221
 H         -18.491583      -54.674263      -11.611991
 H         -17.495308      -53.711029      -12.693497
 H         -17.178816      -57.694157      -14.076314
 H         -18.611809      -57.543640      -13.092411
 H         -16.907881      -56.235401      -11.955892
 H         -16.389915      -55.463638      -13.575646
