20
 generated by VMD
 C         -58.921410     -161.184830      -56.598766
 N         -58.524967     -160.169128      -57.134342
 H         -59.029957     -164.238708      -54.891640
 H         -59.155186     -162.149612      -56.113216
 C         -59.715660     -163.507629      -54.502514
 C         -59.547581     -163.293243      -53.062138
 C         -61.133476     -163.490005      -55.056828
 C         -60.399910     -162.200592      -52.469170
 C         -62.042282     -162.415680      -54.450474
 C         -61.861946     -162.192261      -52.885391
 H         -58.501453     -163.053207      -52.837879
 H         -59.601395     -164.205261      -52.433887
 H         -61.099171     -163.369431      -56.228279
 H         -61.515701     -164.495926      -55.002693
 H         -59.983467     -161.305466      -52.804386
 H         -60.395489     -162.269501      -51.323311
 H         -63.038986     -162.822876      -54.400551
 H         -61.752247     -161.508179      -54.968521
 H         -62.435421     -161.315155      -52.619923
 H         -62.486271     -162.966583      -52.441521
