20
 generated by VMD
 C         -28.484734      -73.825638      -18.884369
 N         -29.502813      -73.828163      -18.384552
 H         -25.681623      -72.604218      -18.865458
 H         -27.708815      -73.791069      -19.650551
 C         -25.574318      -72.531693      -19.903423
 C         -24.944008      -73.667969      -20.665525
 C         -25.787849      -71.086906      -20.400579
 C         -25.515280      -73.617805      -22.111738
 C         -26.345985      -71.228470      -21.926149
 C         -25.411037      -72.195297      -22.752403
 H         -25.293594      -74.630180      -20.213049
 H         -23.845055      -73.541893      -20.716442
 H         -26.497648      -70.660606      -19.710192
 H         -24.802559      -70.495514      -20.443495
 H         -26.574865      -74.030640      -22.116524
 H         -24.840014      -74.360283      -22.614473
 H         -26.396818      -70.236313      -22.513990
 H         -27.391760      -71.618011      -21.936628
 H         -25.648535      -72.207619      -23.782112
 H         -24.372221      -71.949364      -22.703434
