20
 generated by VMD
 C         -28.107628      -87.886528      -26.595749
 N         -28.244587      -86.861679      -26.053263
 H         -31.173719      -89.341652      -25.974907
 H         -28.221098      -88.905731      -27.122084
 C         -32.128723      -88.839188      -26.180801
 C         -33.203854      -88.733040      -25.107931
 C         -32.688160      -88.806847      -27.630312
 C         -34.457150      -87.860504      -25.368822
 C         -33.697674      -87.675934      -27.770618
 C         -34.857315      -87.790428      -26.841749
 H         -32.741806      -88.248039      -24.207182
 H         -33.476650      -89.784363      -24.620556
 H         -31.774689      -88.717201      -28.157814
 H         -33.100872      -89.763588      -27.931959
 H         -34.320286      -86.748260      -25.104202
 H         -35.301403      -88.291771      -24.756771
 H         -34.187492      -87.674583      -28.822765
 H         -33.351288      -86.682816      -27.516653
 H         -35.526413      -86.951859      -26.932545
 H         -35.486038      -88.565651      -27.123402
