20
 generated by VMD
 C         -20.174065      -52.170158       -9.934479
 N         -21.027630      -51.420414      -10.067216
 H         -17.698269      -49.164303      -10.416618
 H         -19.219013      -52.818310       -9.688990
 C         -17.479498      -49.210957      -11.455564
 C         -16.945906      -50.566170      -11.771757
 C         -17.108515      -47.979721      -12.272098
 C         -16.688166      -50.860416      -13.257708
 C         -17.201702      -48.378609      -13.715532
 C         -16.297241      -49.595440      -13.954275
 H         -17.663437      -51.282169      -11.400258
 H         -15.971322      -50.653088      -11.242885
 H         -17.831141      -47.188210      -12.147634
 H         -16.157154      -47.565598      -11.950486
 H         -17.677626      -51.247051      -13.671196
 H         -15.877864      -51.569660      -13.465986
 H         -16.949249      -47.456059      -14.399225
 H         -18.222147      -48.619129      -13.944423
 H         -16.139538      -49.785095      -15.039378
 H         -15.285762      -49.277779      -13.556083
