20
 generated by VMD
 C         -58.239944     -161.854462      -56.315483
 N         -57.171322     -161.948822      -56.810963
 H         -59.524624     -164.942123      -55.244408
 H         -59.189682     -161.784241      -55.752373
 C         -60.355030     -164.456146      -54.870884
 C         -60.403023     -163.957855      -53.449551
 C         -61.662991     -164.445496      -55.710484
 C         -61.448730     -162.870987      -53.056374
 C         -62.832527     -163.458618      -55.227154
 C         -62.854195     -163.272720      -53.604500
 H         -59.462772     -163.431763      -53.213940
 H         -60.540771     -164.799942      -52.719868
 H         -61.382473     -164.408478      -56.846062
 H         -62.068329     -165.404221      -55.494946
 H         -61.134331     -161.849136      -53.274151
 H         -61.517368     -162.826981      -51.921062
 H         -63.720993     -163.977264      -55.640865
 H         -62.539597     -162.513092      -55.583626
 H         -63.682087     -162.666321      -53.333885
 H         -63.257687     -164.181274      -53.213261
