20
 generated by VMD
 C         -38.756092     -108.414825      -36.788765
 N         -37.712643     -108.834915      -37.138062
 H         -41.539158     -109.358559      -36.177700
 H         -39.696091     -107.922493      -36.494366
 C         -41.472740     -110.054581      -35.344105
 C         -40.793495     -111.342819      -35.521343
 C         -42.472607     -109.947594      -34.157860
 C         -40.429790     -112.104607      -34.264240
 C         -42.077774     -110.756287      -32.937176
 C         -41.594128     -112.082176      -33.261806
 H         -39.863861     -111.123383      -36.042309
 H         -41.345261     -112.027298      -36.194691
 H         -42.430527     -108.926003      -33.748447
 H         -43.584244     -110.033920      -34.464485
 H         -39.521927     -111.608978      -33.878845
 H         -40.203892     -113.142815      -34.449772
 H         -42.981281     -110.687302      -32.339714
 H         -41.254135     -110.196831      -32.313896
 H         -41.268738     -112.685539      -32.429459
 H         -42.315697     -112.658653      -33.762035
