20
 generated by VMD
 C          -1.427702      -11.667705        1.560124
 N          -1.119378      -12.314418        0.741931
 H          -3.805085      -12.996278        0.491403
 H          -5.646366      -13.085600        0.822806
 C          -4.668795      -13.592171        0.939937
 C          -4.412738      -13.938170        2.417291
 C          -4.826347      -14.921544        0.165454
 C          -5.609406      -14.654035        3.012311
 C          -5.964429      -15.787822        0.717622
 C          -5.792023      -15.942250        2.239157
 H          -4.242438      -13.015841        2.880173
 H          -3.483699      -14.508376        2.469888
 H          -5.025022      -14.729949       -0.964454
 H          -3.797046      -15.434437        0.257083
 H          -6.472289      -14.001180        2.935908
 H          -5.396211      -14.855096        4.042806
 H          -5.823590      -16.764656        0.288866
 H          -6.986125      -15.486789        0.439716
 H          -6.637978      -16.520292        2.690619
 H          -4.866047      -16.572359        2.395375
