20
 generated by VMD
 C         -57.990723     -167.748184      -55.286175
 N         -56.976795     -168.118317      -54.980637
 H         -61.287342     -166.576447      -55.129311
 H         -58.997246     -167.340607      -55.418747
 C         -62.066929     -166.364700      -55.863182
 C         -62.361118     -167.180176      -57.207485
 C         -62.828148     -165.080643      -55.614307
 C         -63.840191     -167.417953      -57.307518
 C         -64.302719     -165.384186      -55.736195
 C         -64.726700     -166.145355      -57.007145
 H         -61.855240     -168.010315      -57.038841
 H         -61.973564     -166.516266      -58.114933
 H         -62.603420     -164.680084      -54.673462
 H         -62.569794     -164.258301      -56.333988
 H         -64.118813     -168.131332      -56.530991
 H         -64.147827     -167.954178      -58.217102
 H         -64.838226     -164.506714      -55.531338
 H         -64.403000     -166.075150      -54.982449
 H         -65.821205     -166.480362      -56.824535
 H         -64.654755     -165.304092      -57.811440
