20
 generated by VMD
 C         -28.358648      -81.314445      -27.605169
 N         -29.452171      -80.976372      -27.454050
 H         -28.971788      -82.935562      -24.417198
 H         -27.392712      -81.615829      -28.015066
 C         -29.907845      -83.424683      -24.256376
 C         -30.009060      -83.981125      -22.831329
 C         -30.569216      -84.413567      -25.226366
 C         -31.571360      -84.139839      -22.490463
 C         -32.053802      -84.789787      -24.856390
 C         -32.111141      -85.177444      -23.393845
 H         -29.469471      -83.352280      -22.239098
 H         -29.404251      -84.912491      -22.736002
 H         -30.579067      -84.045593      -26.265289
 H         -29.924654      -85.287689      -25.307148
 H         -32.022659      -83.206856      -22.562471
 H         -31.689756      -84.348824      -21.374249
 H         -32.529274      -85.602203      -25.428146
 H         -32.653057      -83.930702      -24.927174
 H         -33.107849      -85.455666      -23.136215
 H         -31.505714      -86.086433      -23.230106
