20
 generated by VMD
 C         -78.064774     -204.166565      -69.802017
 N         -79.088844     -203.705292      -69.988464
 H         -75.571953     -202.370941      -67.520378
 H         -77.082779     -204.608353      -69.750351
 C         -75.397629     -202.472946      -68.575569
 C         -75.817490     -201.340149      -69.514191
 C         -74.288277     -203.369888      -69.083885
 C         -74.980812     -201.323456      -70.767700
 C         -73.108498     -202.521027      -69.391685
 C         -73.436714     -201.379166      -70.246185
 H         -75.622604     -200.394592      -68.958176
 H         -76.893120     -201.511398      -69.592651
 H         -74.119499     -204.212006      -68.422493
 H         -74.506310     -203.926743      -69.946648
 H         -75.115555     -200.450333      -71.431671
 H         -75.220779     -202.157730      -71.372559
 H         -72.464455     -203.289948      -69.871887
 H         -72.489998     -202.177032      -68.499878
 H         -73.415405     -200.411163      -69.487129
 H         -72.650108     -201.115921      -70.980370
