20
 generated by VMD
 C          -4.930435      -21.061651        1.864519
 N          -5.305972      -20.352011        2.645555
 H          -5.124881      -18.569281       -0.762047
 H          -5.503376      -20.164295       -0.135577
 C          -5.818745      -19.441397       -0.900833
 C          -5.563845      -20.042206       -2.285650
 C          -7.209104      -18.934980       -0.576529
 C          -6.693487      -20.908747       -2.685422
 C          -8.354948      -19.821819       -1.163302
 C          -7.986826      -20.099758       -2.649688
 H          -4.625995      -20.670338       -2.178865
 H          -5.409015      -19.211229       -2.973369
 H          -7.421229      -18.967682        0.498864
 H          -7.398770      -17.913061       -0.963156
 H          -6.799825      -21.762184       -2.011560
 H          -6.537889      -21.299845       -3.650184
 H          -9.310666      -19.310379       -1.079167
 H          -8.506024      -20.765194       -0.589256
 H          -8.815945      -20.729588       -3.071014
 H          -7.869555      -19.159801       -3.241358
