20
 generated by VMD
 C         -61.576797     -154.717499      -53.717323
 N         -62.250793     -155.634476      -54.130169
 H         -58.142811     -155.431427      -51.940311
 H         -60.992092     -153.840363      -53.408031
 C         -57.265598     -154.929489      -51.608601
 C         -57.228413     -154.361404      -50.250175
 C         -56.088326     -154.782318      -52.520298
 C         -56.062855     -154.766312      -49.430614
 C         -54.850079     -155.205582      -51.611221
 C         -54.752579     -154.526840      -50.255341
 H         -58.093586     -154.588638      -49.696041
 H         -57.175480     -153.279587      -50.485741
 H         -55.938877     -155.433121      -53.347744
 H         -56.094418     -153.743362      -52.892162
 H         -56.226105     -155.864517      -49.372971
 H         -56.185173     -154.151978      -48.566708
 H         -53.979843     -154.928406      -52.151707
 H         -54.953220     -156.318497      -51.493458
 H         -53.903225     -154.980026      -49.791763
 H         -54.438740     -153.390839      -50.372952
