20
 generated by VMD
 C         -23.344391      -55.107243      -15.021962
 N         -22.718683      -54.874771      -15.917974
 H         -19.909538      -54.303955      -15.476283
 H         -24.282814      -55.315369      -14.299745
 C         -19.490253      -55.176750      -14.869642
 C         -18.911005      -54.902866      -13.485255
 C         -19.140396      -56.603237      -15.475452
 C         -19.196733      -56.072441      -12.476897
 C         -19.361618      -57.693199      -14.463641
 C         -18.739452      -57.384109      -13.110475
 H         -19.317364      -53.979107      -13.068684
 H         -17.875280      -54.822449      -13.691792
 H         -19.806700      -56.902397      -16.303402
 H         -18.152746      -56.544125      -15.722993
 H         -20.263353      -56.110889      -12.226020
 H         -18.713474      -55.927273      -11.497414
 H         -18.940659      -58.630280      -14.841438
 H         -20.484800      -57.922447      -14.333309
 H         -18.935925      -58.299728      -12.519227
 H         -17.660439      -57.479607      -13.214843
