20
 generated by VMD
 C         -29.665140      -88.112198      -25.640545
 N         -29.190714      -89.024445      -25.132170
 H         -31.420710      -90.384224      -27.795233
 H         -30.052427      -87.234421      -25.979879
 C         -32.320930      -89.771675      -27.504883
 C         -32.956455      -89.810051      -26.198483
 C         -33.262547      -89.464165      -28.625681
 C         -33.709782      -88.569626      -25.736549
 C         -34.176624      -88.267044      -28.337639
 C         -34.675476      -88.064003      -26.822672
 H         -32.129036      -90.063087      -25.501755
 H         -33.605618      -90.654510      -26.040558
 H         -32.785675      -89.222794      -29.586416
 H         -33.924061      -90.414062      -28.725676
 H         -32.985085      -87.875069      -25.649664
 H         -34.088413      -88.840363      -24.727486
 H         -35.012531      -88.175423      -29.042225
 H         -33.473320      -87.381966      -28.478828
 H         -34.962757      -87.048607      -26.536999
 H         -35.572830      -88.727058      -26.691614
