20
 generated by VMD
 C         -58.935192     -152.599411      -50.722717
 N         -59.969471     -152.940109      -50.432560
 H         -56.869190     -151.469238      -48.549057
 H         -57.983227     -152.232544      -50.953098
 C         -56.135822     -151.173187      -49.286053
 C         -55.376305     -152.237350      -50.023834
 C         -55.831753     -149.762711      -49.472382
 C         -54.532932     -151.859543      -51.303822
 C         -54.746613     -149.467590      -50.547348
 C         -53.773598     -150.564514      -50.863098
 H         -56.127464     -153.099991      -50.299942
 H         -54.682514     -152.691010      -49.302742
 H         -56.709553     -149.108124      -49.609818
 H         -55.439903     -149.447845      -48.495701
 H         -55.123798     -151.769913      -52.218258
 H         -53.703323     -152.639481      -51.365612
 H         -54.140530     -148.636810      -50.418793
 H         -55.406723     -149.050247      -51.442207
 H         -53.085499     -150.374420      -51.575783
 H         -53.348759     -150.947586      -49.891399
