20
 generated by VMD
 C         -19.499508      -59.832336      -17.094435
 N         -18.875977      -60.733547      -16.714802
 H         -22.977640      -61.028362      -17.482250
 H         -20.136396      -59.051563      -17.212852
 C         -23.343437      -62.051636      -17.214050
 C         -24.182348      -62.876247      -18.103863
 C         -23.270241      -62.257679      -15.751587
 C         -23.835661      -64.356888      -17.877417
 C         -23.298746      -63.763142      -15.477000
 C         -24.193422      -64.644608      -16.404734
 H         -24.014368      -62.604183      -19.170977
 H         -25.248991      -62.800644      -17.901045
 H         -22.333330      -61.733990      -15.364455
 H         -24.088612      -61.701233      -15.229204
 H         -22.736395      -64.396690      -18.103283
 H         -24.239828      -65.126534      -18.593540
 H         -23.661278      -63.942272      -14.481729
 H         -22.297459      -64.160789      -15.567110
 H         -23.728800      -65.657593      -16.227722
 H         -25.281361      -64.781441      -16.211979
