20
 generated by VMD
 C         -67.135849     -189.615540      -66.508095
 N         -66.228615     -189.583923      -67.270638
 H         -70.095238     -190.602264      -65.507980
 H         -67.878166     -189.786560      -65.746460
 C         -70.899590     -190.133347      -64.959084
 C         -72.013107     -190.972260      -64.298286
 C         -70.393295     -188.819260      -64.213737
 C         -73.088333     -189.950684      -64.055199
 C         -71.608604     -187.986252      -63.737286
 C         -72.746460     -188.729813      -63.143616
 H         -71.621590     -191.307175      -63.413967
 H         -72.402000     -191.797470      -64.875450
 H         -69.953117     -189.157379      -63.253372
 H         -69.779846     -188.130234      -64.811981
 H         -73.984497     -190.472931      -63.597183
 H         -73.504166     -189.616531      -64.978935
 H         -72.081032     -187.515289      -64.620201
 H         -71.102943     -187.151779      -63.110683
 H         -72.546661     -188.923172      -62.159657
 H         -73.666260     -188.147247      -63.073524
