20
 generated by VMD
 C         -68.679008     -193.711258      -64.580696
 N         -68.449875     -194.377838      -65.536209
 H         -70.970703     -193.513229      -67.648819
 H         -69.223228     -193.090942      -63.850414
 C         -71.807579     -193.002167      -67.224350
 C         -71.616318     -191.842438      -66.381279
 C         -73.134460     -193.706238      -67.223854
 C         -72.870728     -191.106171      -65.881813
 C         -74.123199     -193.263687      -66.183800
 C         -73.773567     -192.143845      -65.306053
 H         -70.942451     -191.109573      -66.970146
 H         -71.036484     -192.015427      -65.499908
 H         -73.499405     -193.600510      -68.275444
 H         -72.990570     -194.842560      -67.351204
 H         -73.418594     -190.721802      -66.794792
 H         -72.774536     -190.184769      -65.240150
 H         -74.234840     -194.165802      -65.498016
 H         -75.128098     -193.084106      -66.508820
 H         -74.617149     -191.560974      -64.876366
 H         -73.316376     -192.577087      -64.365158
