20
 generated by VMD
 C         -28.487116      -82.467354      -26.421329
 N         -27.668594      -82.809517      -27.190561
 H         -31.133879      -84.112381      -26.623121
 H         -29.156187      -82.155037      -25.558060
 C         -31.394976      -84.707375      -25.775883
 C         -30.866898      -84.491920      -24.365112
 C         -31.981922      -86.015411      -26.115339
 C         -31.850988      -84.926743      -23.311808
 C         -33.044254      -86.437141      -25.069349
 C         -32.426208      -86.359833      -23.611713
 H         -30.629084      -83.439606      -24.232018
 H         -29.852287      -85.033905      -24.498873
 H         -32.526878      -85.897522      -27.086142
 H         -31.160717      -86.770172      -26.295261
 H         -32.618038      -84.215698      -23.098951
 H         -31.332758      -85.099785      -22.340714
 H         -33.262779      -87.530617      -25.287167
 H         -33.941833      -85.900833      -25.293053
 H         -33.094097      -86.815437      -22.922718
 H         -31.568279      -87.111610      -23.664825
