20
 generated by VMD
 C         -57.619934     -165.307785      -56.557354
 N         -57.221817     -164.397797      -57.226772
 H         -60.349197     -164.515854      -53.942760
 H         -58.104519     -166.130829      -55.975430
 C         -61.297050     -164.716736      -54.308609
 C         -61.917015     -166.066055      -54.178185
 C         -61.571659     -164.018707      -55.641033
 C         -63.471443     -165.899673      -54.368088
 C         -63.127739     -164.004944      -55.936344
 C         -63.832546     -165.328049      -55.718052
 H         -61.550076     -166.726974      -53.362549
 H         -61.514164     -166.659088      -55.066517
 H         -61.253273     -162.984070      -55.868027
 H         -61.155327     -164.575577      -56.468422
 H         -63.765713     -165.120392      -53.583031
 H         -63.863247     -166.922424      -54.069363
 H         -63.468021     -163.569794      -57.015717
 H         -63.649349     -163.240906      -55.332550
 H         -64.873718     -165.226852      -55.642582
 H         -63.362293     -165.965652      -56.425468
