20
 generated by VMD
 C         -47.378151     -138.961243      -45.654301
 N         -46.835316     -138.559296      -46.662716
 H         -50.696213     -138.420914      -44.744602
 H         -47.765285     -139.517273      -44.782040
 C         -51.632084     -138.810898      -45.109131
 C         -51.836143     -139.149170      -46.524971
 C         -52.910599     -138.453766      -44.363045
 C         -52.948360     -140.141678      -46.810162
 C         -54.069447     -139.403229      -44.700001
 C         -54.249306     -139.687958      -46.108582
 H         -50.924477     -139.393707      -47.159302
 H         -52.049385     -138.147049      -46.882576
 H         -52.757217     -138.306366      -43.242283
 H         -53.209332     -137.414047      -44.757656
 H         -52.745102     -141.110428      -46.305168
 H         -53.119144     -140.422455      -47.809818
 H         -55.050152     -139.069550      -44.494015
 H         -54.022182     -140.264496      -43.936512
 H         -55.042503     -140.468903      -46.203133
 H         -54.725910     -138.719849      -46.582535
