20
 generated by VMD
 C         -38.735317     -108.452934      -36.770565
 N         -37.693958     -108.828552      -37.076748
 H         -41.557400     -109.143661      -36.134277
 H         -39.758343     -108.260139      -36.638191
 C         -41.551804     -110.014488      -35.394474
 C         -40.800915     -111.383469      -35.628654
 C         -42.454594     -109.952049      -34.212467
 C         -40.475552     -112.181648      -34.267746
 C         -42.075386     -110.713524      -32.907253
 C         -41.560452     -112.153511      -33.227753
 H         -39.939751     -111.369339      -36.318512
 H         -41.568333     -111.946510      -36.136810
 H         -42.624317     -108.876991      -34.049122
 H         -43.427292     -110.500237      -34.592640
 H         -39.486500     -111.931320      -33.782249
 H         -40.326157     -113.170265      -34.563728
 H         -42.919098     -110.980553      -32.241470
 H         -41.281265     -110.095177      -32.271854
 H         -41.280293     -112.545837      -32.304535
 H         -42.457935     -112.635216      -33.567329
