20
 generated by VMD
 C         -40.649006     -119.145004      -35.324139
 N         -39.657066     -118.603775      -35.124485
 H         -43.817284     -117.329262      -36.072063
 H         -41.597633     -119.556335      -35.393726
 C         -44.029156     -117.106934      -37.148045
 C         -43.033989     -117.489258      -38.174210
 C         -45.275349     -116.433311      -37.580738
 C         -43.760323     -118.383713      -39.191784
 C         -45.930176     -117.238136      -38.690327
 C         -44.900406     -117.579285      -39.798035
 H         -42.260216     -117.952621      -37.555031
 H         -42.734207     -116.542168      -38.693058
 H         -46.091236     -116.427864      -36.784313
 H         -45.145603     -115.442627      -37.917866
 H         -44.197044     -119.202599      -38.654213
 H         -42.913750     -118.641403      -39.830925
 H         -46.645489     -116.568748      -39.233513
 H         -46.485516     -118.050865      -38.432587
 H         -45.347408     -118.343040      -40.497757
 H         -44.607338     -116.714455      -40.302567
