20
 generated by VMD
 C         -68.984482     -181.034073      -61.225464
 N         -69.939613     -180.699493      -60.688084
 H         -67.354477     -178.585892      -59.521053
 H         -68.165604     -181.472839      -61.770752
 C         -66.448303     -177.976929      -59.796276
 C         -65.842018     -178.185303      -61.189545
 C         -65.332840     -177.438461      -58.776558
 C         -64.986359     -176.930786      -61.709068
 C         -64.677338     -176.225693      -59.388428
 C         -64.049255     -176.241699      -60.697456
 H         -66.506935     -178.378494      -62.053902
 H         -65.046196     -178.994156      -61.220253
 H         -65.821007     -177.225647      -57.881714
 H         -64.664795     -178.279663      -58.572922
 H         -65.570587     -176.364120      -62.283928
 H         -64.355667     -177.292816      -62.511612
 H         -63.995518     -175.708511      -58.691456
 H         -65.575478     -175.600739      -59.344627
 H         -63.699787     -175.305374      -61.014694
 H         -63.208714     -176.892441      -60.701698
