20
 generated by VMD
 C         -28.658573      -81.388489      -27.687460
 N         -29.621309      -80.799942      -27.432386
 H         -28.562519      -83.348541      -24.305880
 H         -27.782293      -81.987122      -27.730232
 C         -29.656197      -83.429741      -24.105310
 C         -30.028400      -83.716324      -22.628939
 C         -30.369898      -84.196243      -25.138668
 C         -31.403732      -84.128807      -22.408237
 C         -31.822325      -84.324089      -24.835356
 C         -32.034492      -85.092529      -23.483313
 H         -29.784269      -82.732811      -22.113817
 H         -29.305500      -84.348022      -22.228128
 H         -30.227621      -83.653839      -26.062479
 H         -29.998497      -85.210159      -25.262564
 H         -31.843046      -83.195488      -22.179609
 H         -31.486256      -84.525925      -21.347605
 H         -32.362991      -84.860703      -25.601902
 H         -32.258850      -83.409599      -24.680981
 H         -33.102058      -85.421730      -23.310358
 H         -31.356649      -85.981842      -23.493919
