20
 generated by VMD
 C          -5.947505      -21.057573        1.603836
 N          -5.776731      -21.721682        2.480091
 H          -4.994436      -18.502583       -1.305426
 H          -5.479003      -19.821798       -0.263705
 C          -5.739980      -19.290237       -1.266896
 C          -5.504901      -20.279573       -2.423070
 C          -7.175106      -18.750679       -1.137766
 C          -6.556793      -21.370493       -2.326863
 C          -8.220040      -19.831167       -1.183056
 C          -7.984576      -20.702204       -2.406798
 H          -4.459586      -20.700430       -2.425762
 H          -5.513117      -19.751867       -3.343402
 H          -7.284168      -18.107502       -0.264098
 H          -7.376869      -18.116583       -2.016932
 H          -6.499483      -21.827587       -1.322582
 H          -6.470021      -22.174255       -3.046480
 H          -9.198174      -19.380754       -1.185960
 H          -8.090607      -20.475723       -0.306407
 H          -8.754595      -21.462540       -2.491924
 H          -8.166704      -20.171597       -3.327046
