20
 generated by VMD
 C         -27.792128      -72.650970      -17.976076
 N         -28.070854      -73.541283      -17.311005
 H         -24.639669      -70.776009      -18.782965
 H         -27.402933      -71.829872      -18.473772
 C         -25.062643      -71.062378      -19.706739
 C         -24.397459      -72.154175      -20.535971
 C         -25.804306      -69.986343      -20.485714
 C         -25.267958      -72.718224      -21.619675
 C         -26.391418      -70.440407      -21.802057
 C         -25.716440      -71.479401      -22.534811
 H         -24.101053      -72.905479      -19.898146
 H         -23.504330      -71.737831      -20.889212
 H         -26.467852      -69.543999      -19.728357
 H         -25.089258      -69.187515      -20.699942
 H         -26.173954      -73.236069      -21.356512
 H         -24.743174      -73.470192      -22.206272
 H         -26.405176      -69.534302      -22.370831
 H         -27.409065      -70.796646      -21.640644
 H         -26.247425      -71.761032      -23.483727
 H         -24.777569      -71.053047      -22.898527
