20
 generated by VMD
 C         -58.522125     -151.677933      -49.647591
 N         -59.279381     -152.212234      -48.871696
 H         -55.857952     -149.719299      -47.985802
 H         -57.990932     -151.161057      -50.414677
 C         -55.054382     -149.540100      -48.663502
 C         -54.206657     -150.515457      -49.415237
 C         -54.843102     -148.080750      -48.897282
 C         -54.199528     -150.292984      -50.972256
 C         -54.813152     -147.842804      -50.430496
 C         -53.882282     -148.826904      -51.187256
 H         -54.656773     -151.472824      -49.196724
 H         -53.209270     -150.221558      -48.940163
 H         -55.659966     -147.371902      -48.491627
 H         -53.894306     -147.637665      -48.518185
 H         -55.238506     -150.485352      -51.336498
 H         -53.501202     -151.037766      -51.427406
 H         -54.405369     -146.910843      -50.506527
 H         -55.769062     -147.672501      -51.070019
 H         -53.886253     -148.516754      -52.285027
 H         -52.895550     -148.652847      -50.852657
