20
 generated by VMD
 C         -22.137684      -55.111279      -17.335077
 N         -22.502457      -55.298573      -18.450054
 H         -21.078560      -56.425358      -14.192698
 H         -21.568682      -55.144485      -16.334812
 C         -20.667580      -57.470608      -14.037448
 C         -20.946741      -58.216465      -12.918136
 C         -19.983137      -57.899921      -15.258512
 C         -20.902246      -59.653309      -13.206652
 C         -19.873144      -59.387238      -15.361056
 C         -19.664894      -60.054798      -14.054708
 H         -21.930422      -57.953770      -12.577166
 H         -20.229372      -57.963398      -12.196623
 H         -20.459297      -57.564499      -16.165703
 H         -18.945175      -57.383209      -15.256312
 H         -21.854710      -60.038147      -13.669507
 H         -20.819145      -60.176693      -12.209514
 H         -19.124098      -59.695221      -16.120071
 H         -20.830149      -59.762062      -15.835046
 H         -19.671991      -61.151588      -14.094223
 H         -18.697937      -59.752655      -13.599107
