20
 generated by VMD
 C         -41.739632     -120.219215      -34.323982
 N         -42.251808     -121.243439      -34.353027
 H         -43.403797     -119.316971      -37.349010
 H         -41.234074     -119.336243      -34.484795
 C         -43.972733     -119.116730      -38.292793
 C         -43.103504     -118.777573      -39.460007
 C         -45.328041     -118.440773      -38.065964
 C         -43.914978     -118.880531      -40.738529
 C         -46.077084     -118.471481      -39.346241
 C         -45.176743     -117.977989      -40.546524
 H         -42.324406     -119.504845      -39.411434
 H         -42.527447     -117.884712      -39.276974
 H         -45.858566     -118.911316      -37.291019
 H         -45.117096     -117.453629      -37.666325
 H         -44.147907     -119.968521      -40.872383
 H         -43.350662     -118.569229      -41.599472
 H         -47.104248     -117.821884      -39.328339
 H         -46.446590     -119.550972      -39.572254
 H         -45.770275     -117.917397      -41.473934
 H         -44.725391     -116.958725      -40.608700
