20
 generated by VMD
 C         -31.319582      -75.576881      -23.576212
 N         -30.896078      -76.052116      -24.528990
 H         -29.463758      -78.601891      -22.070494
 H         -31.312023      -75.149765      -22.556639
 C         -28.529709      -78.163582      -21.911528
 C         -27.581249      -78.334297      -23.012800
 C         -27.861483      -78.103806      -20.552958
 C         -26.401443      -77.306000      -23.103231
 C         -26.837885      -76.958282      -20.524303
 C         -25.781912      -77.154709      -21.688583
 H         -28.177555      -78.219467      -24.043634
 H         -27.138916      -79.334274      -22.856529
 H         -28.716099      -77.819084      -19.884600
 H         -27.366129      -78.966080      -20.275005
 H         -26.683130      -76.304169      -23.428953
 H         -25.665890      -77.819214      -23.791065
 H         -26.403212      -76.967300      -19.526327
 H         -27.206938      -75.894394      -20.575500
 H         -25.181250      -76.239967      -21.809586
 H         -25.083357      -77.917946      -21.519588
