20
 generated by VMD
 C         -62.914352     -172.217972      -55.220970
 N         -62.494987     -173.327179      -55.149090
 H         -61.424564     -171.446884      -58.660130
 H         -63.471363     -171.281281      -55.151276
 C         -62.324879     -170.805862      -58.795612
 C         -62.310589     -169.415314      -58.033516
 C         -63.744301     -171.404434      -58.982067
 C         -63.703922     -168.631989      -57.964207
 C         -64.879318     -170.399719      -59.045990
 C         -65.032555     -169.383804      -57.942009
 H         -61.568092     -168.819885      -58.435772
 H         -62.017296     -169.638199      -56.905128
 H         -63.651913     -172.036026      -59.931351
 H         -63.939472     -172.048813      -58.155739
 H         -63.760593     -168.011246      -58.793655
 H         -63.719193     -167.909897      -57.156136
 H         -65.818573     -170.948364      -59.090824
 H         -64.858131     -169.870102      -60.015606
 H         -65.904602     -168.637772      -57.915718
 H         -65.146790     -169.983047      -57.003696
