20
 generated by VMD
 C         -66.612228     -177.917007      -56.947754
 N         -67.730698     -178.153854      -56.916210
 H         -64.566833     -176.237442      -59.659081
 H         -65.534615     -177.706268      -56.954586
 C         -64.335152     -175.094269      -59.611370
 C         -65.523148     -174.232056      -59.360588
 C         -63.103565     -174.568634      -60.377556
 C         -65.114113     -172.739410      -59.232048
 C         -63.041359     -172.971878      -60.354282
 C         -64.410873     -172.217819      -60.419209
 H         -65.854034     -174.483978      -58.311150
 H         -66.303223     -174.403732      -60.125134
 H         -62.176502     -174.983124      -59.928257
 H         -63.235889     -174.881882      -61.503029
 H         -64.553169     -172.528931      -58.278622
 H         -66.130280     -172.288147      -59.117348
 H         -62.353752     -172.762238      -61.142803
 H         -62.651340     -172.537338      -59.397831
 H         -64.419777     -171.087265      -60.359966
 H         -65.052406     -172.536789      -61.242683
