20
 generated by VMD
 C         -70.210808     -197.237289      -66.150764
 N         -69.685791     -196.260086      -65.752510
 H         -71.873497     -194.416504      -64.780830
 H         -70.909477     -198.033615      -66.495491
 C         -72.548737     -194.051468      -65.589485
 C         -72.684135     -192.651062      -66.038605
 C         -73.320854     -195.129242      -66.312317
 C         -73.607521     -192.393066      -67.257416
 C         -73.900185     -194.889465      -67.687439
 C         -73.478035     -193.570435      -68.274887
 H         -71.653351     -192.394760      -66.358276
 H         -73.142929     -192.098251      -65.162064
 H         -72.719360     -196.086655      -66.411255
 H         -74.145332     -195.680237      -65.816681
 H         -73.380875     -191.396790      -67.651848
 H         -74.633301     -192.503708      -66.948418
 H         -75.017197     -194.902298      -67.573517
 H         -73.708374     -195.678482      -68.380623
 H         -72.445541     -193.573410      -68.651207
 H         -74.237930     -193.337738      -69.133598
