20
 generated by VMD
 C         -13.034275      -31.163515       -8.219454
 N         -12.581798      -30.132408       -8.364654
 H         -11.503538      -33.030567       -7.132115
 H         -12.147287      -32.427261       -5.626140
 C         -11.536614      -33.230209       -6.087177
 C         -10.146351      -33.177887       -5.518219
 C         -12.229342      -34.608505       -5.875808
 C         -10.022112      -33.779648       -4.088524
 C         -12.172087      -35.206387       -4.493573
 C         -10.764972      -35.176262       -3.925571
 H          -9.745627      -32.185875       -5.575115
 H          -9.563090      -33.825287       -6.185472
 H         -13.276212      -34.596390       -6.208412
 H         -11.671565      -35.293076       -6.554611
 H         -10.609285      -33.000256       -3.518481
 H          -8.946061      -33.855236       -3.790134
 H         -12.562420      -36.209183       -4.486732
 H         -12.841292      -34.495537       -3.863870
 H         -10.658410      -35.502357       -2.884424
 H         -10.240642      -35.957207       -4.532598
