20
 generated by VMD
 C         -10.603788      -37.472866       -8.101422
 N         -10.714721      -36.696918       -7.335217
 H         -12.756091      -39.374741       -7.987519
 H         -14.221765      -39.366196       -6.953239
 C         -13.790753      -39.705364       -7.882271
 C         -13.772320      -41.254829       -7.862122
 C         -14.698380      -39.171036       -8.984386
 C         -15.183414      -41.761730       -7.610572
 C         -16.065851      -39.788036       -8.888080
 C         -16.106510      -41.302017       -8.716684
 H         -13.228842      -41.629757       -7.003390
 H         -13.353571      -41.597576       -8.787867
 H         -14.826558      -38.075966       -8.857977
 H         -14.280907      -39.393768       -9.960625
 H         -15.512656      -41.409241       -6.625710
 H         -15.127128      -42.872395       -7.615773
 H         -16.643738      -39.515892       -9.766816
 H         -16.613840      -39.314919       -8.024704
 H         -17.099531      -41.733528       -8.607527
 H         -15.753083      -41.716106       -9.640154
