20
 generated by VMD
 C          -1.547126      -13.193950        0.712855
 N          -0.596088      -13.710004        0.417664
 H          -4.030648      -14.242460        2.101302
 H          -4.820992      -13.845984        0.613928
 C          -4.807542      -14.585308        1.413404
 C          -6.186377      -14.605797        2.169310
 C          -4.341561      -15.993214        1.030505
 C          -7.208352      -15.478039        1.463379
 C          -5.466693      -16.768454        0.294700
 C          -6.737190      -16.864395        1.086876
 H          -6.527190      -13.549830        2.347442
 H          -5.950343      -14.952986        3.220497
 H          -3.571573      -15.824187        0.269291
 H          -3.915840      -16.563902        1.924129
 H          -7.487493      -15.038793        0.531069
 H          -8.113830      -15.541913        2.028347
 H          -5.107786      -17.694729       -0.095629
 H          -5.698337      -16.102396       -0.535415
 H          -7.540298      -17.404726        0.552349
 H          -6.537038      -17.443768        1.999001
