20
 generated by VMD
 C         -13.695209      -43.885048       -6.759470
 N         -13.541821      -43.861000       -5.657213
 H         -14.844827      -44.794895       -9.042044
 H         -14.300973      -43.863258      -10.375770
 C         -15.191302      -44.447182       -9.982800
 C         -16.327377      -43.493301       -9.697068
 C         -15.619686      -45.556625      -10.919641
 C         -16.972626      -42.945534      -10.963265
 C         -16.052736      -44.876396      -12.247500
 C         -17.194506      -43.896484      -12.117485
 H         -16.007986      -42.755962       -9.009085
 H         -17.125549      -44.049381       -9.220720
 H         -14.773889      -46.234859      -11.083394
 H         -16.368177      -46.214119      -10.487653
 H         -16.304304      -42.144676      -11.323073
 H         -17.916193      -42.477726      -10.648435
 H         -16.313179      -45.526958      -12.999965
 H         -15.094409      -44.407856      -12.601327
 H         -17.241478      -43.348721      -13.080526
 H         -18.171394      -44.473270      -12.050970
