20
 generated by VMD
 C         -19.239788      -59.799362      -17.059553
 N         -18.900578      -60.770218      -16.552982
 H         -22.857817      -61.248096      -17.840036
 H         -19.560993      -58.980591      -17.605261
 C         -23.550943      -62.029846      -17.376425
 C         -24.333557      -62.978004      -18.212278
 C         -23.243111      -62.371925      -15.943716
 C         -23.938530      -64.395912      -17.857458
 C         -23.395823      -63.875015      -15.384638
 C         -24.046825      -64.781624      -16.405264
 H         -24.373583      -62.638981      -19.243303
 H         -25.453960      -62.832066      -17.987125
 H         -22.272394      -62.017147      -15.733898
 H         -23.835766      -61.756348      -15.225359
 H         -23.037674      -64.568832      -18.379522
 H         -24.680269      -64.985588      -18.404243
 H         -24.184311      -63.799580      -14.617536
 H         -22.421415      -64.302780      -15.114998
 H         -23.630568      -65.787094      -16.296116
 H         -25.108427      -64.837250      -16.083368
