20
 generated by VMD
 C         -62.685024     -172.054291      -55.337212
 N         -61.966324     -173.013138      -55.340984
 H         -61.708298     -171.272858      -58.178429
 H         -63.306171     -171.158081      -55.277336
 C         -62.531830     -170.569641      -58.185120
 C         -62.371990     -169.089050      -57.978138
 C         -63.794254     -171.271942      -58.660076
 C         -63.631321     -168.322723      -58.241219
 C         -64.931259     -170.277328      -58.814133
 C         -64.810867     -169.148651      -57.800003
 H         -61.627361     -168.802017      -58.600796
 H         -61.969597     -168.903030      -56.864281
 H         -63.588005     -171.778702      -59.593109
 H         -64.168541     -171.935425      -57.974724
 H         -63.591175     -167.954636      -59.286526
 H         -63.556473     -167.352036      -57.636715
 H         -65.929497     -170.762024      -58.615765
 H         -65.052971     -169.814545      -59.892101
 H         -65.712517     -168.555786      -57.799862
 H         -64.627525     -169.445450      -56.761410
