20
 generated by VMD
 C         -44.664383     -122.386299      -36.043869
 N         -44.085365     -121.592567      -35.460094
 H         -45.308041     -122.789833      -39.407986
 H         -44.993317     -123.122940      -36.779999
 C         -44.911179     -121.754707      -39.540852
 C         -43.544750     -121.218086      -39.409767
 C         -45.987217     -120.743958      -39.377274
 C         -43.272972     -119.952568      -40.299599
 C         -45.757198     -119.397339      -40.129810
 C         -44.282608     -118.858780      -39.806011
 H         -42.877090     -122.100639      -39.792988
 H         -43.308235     -121.078896      -38.347775
 H         -46.879559     -121.316635      -39.674465
 H         -46.081547     -120.386780      -38.374790
 H         -43.433468     -120.084213      -41.408867
 H         -42.344761     -119.455093      -39.944496
 H         -46.459599     -118.625778      -39.755360
 H         -45.648605     -119.497849      -41.276943
 H         -44.097828     -117.980927      -40.358101
 H         -44.157421     -118.641846      -38.782120
