20
 generated by VMD
 C         -38.757050      -99.085060      -27.169037
 N         -37.798790      -99.248970      -26.530376
 H         -37.214996      -97.199913      -30.318375
 H         -39.788773      -98.863922      -27.614162
 C         -36.166218      -96.944130      -30.532650
 C         -35.597141      -97.461510      -31.814161
 C         -35.286015      -96.415100      -29.496317
 C         -34.226929      -96.926460      -32.230415
 C         -34.279388      -95.437820      -30.018618
 C         -33.458641      -96.191208      -31.185747
 H         -36.273472      -97.214622      -32.627625
 H         -35.492882      -98.623123      -31.757240
 H         -35.791367      -95.859161      -28.707586
 H         -34.831367      -97.299110      -28.982586
 H         -34.410503      -96.376549      -33.152752
 H         -33.627975      -97.791794      -32.692074
 H         -33.727638      -94.939034      -29.138287
 H         -34.877968      -94.655624      -30.465872
 H         -32.721977      -95.473747      -31.592539
 H         -32.817902      -97.028015      -30.790514
