20
 generated by VMD
 C         -23.991825      -69.702095      -16.849266
 N         -24.310869      -70.014984      -15.780365
 H         -23.891123      -66.784096      -18.898119
 H         -23.440172      -69.333534      -17.799173
 C         -24.402512      -67.691772      -19.346336
 C         -23.873444      -68.494774      -20.470592
 C         -25.809248      -67.569229      -19.377668
 C         -24.696421      -69.704369      -20.920954
 C         -26.601263      -68.857933      -19.705460
 C         -26.144846      -69.493401      -21.064941
 H         -22.959751      -68.817940      -20.071913
 H         -23.697588      -67.873581      -21.379820
 H         -26.147957      -67.300110      -18.322372
 H         -26.256189      -66.703194      -20.067057
 H         -24.554583      -70.466423      -20.192316
 H         -24.167662      -70.137253      -21.817177
 H         -27.663694      -68.654701      -19.806858
 H         -26.278469      -69.614967      -19.007462
 H         -26.725666      -70.402275      -21.331757
 H         -26.291893      -68.891380      -21.960386
