20
 generated by VMD
 C          -9.954955      -24.527985       -0.137374
 N         -10.832280      -25.022638       -0.637554
 H          -6.326212      -25.025007       -0.869617
 H          -8.032378      -24.963421       -1.177348
 C          -7.073616      -24.782974       -1.657536
 C          -7.024345      -25.717796       -2.859980
 C          -6.942850      -23.298546       -2.041386
 C          -7.918158      -25.280069       -3.988426
 C          -7.879744      -22.820940       -3.206723
 C          -7.850098      -23.818541       -4.373221
 H          -7.355956      -26.772381       -2.493351
 H          -6.005710      -25.683950       -3.282865
 H          -7.115298      -22.608398       -1.181073
 H          -5.911563      -23.227150       -2.425657
 H          -8.945652      -25.398069       -3.658806
 H          -7.625626      -25.867119       -4.862938
 H          -7.692811      -21.779997       -3.496116
 H          -8.883947      -22.829201       -2.724663
 H          -8.703424      -23.550747       -5.033861
 H          -6.944595      -23.685244       -4.953958
