20
 generated by VMD
 C         -79.645210     -205.405151      -71.714218
 N         -79.825760     -206.510864      -71.565262
 H         -76.508179     -204.254776      -72.060921
 H         -79.583824     -204.329178      -71.787880
 C         -76.186531     -204.161209      -71.048027
 C         -75.470161     -202.875671      -70.606033
 C         -76.483238     -205.216080      -70.054558
 C         -74.030090     -203.261856      -70.204491
 C         -75.206306     -205.448914      -69.112282
 C         -73.895729     -204.717178      -69.764702
 H         -75.933594     -202.415588      -69.720184
 H         -75.358398     -202.076599      -71.385437
 H         -77.232582     -205.067474      -69.391640
 H         -76.675911     -206.066071      -70.654114
 H         -73.464767     -202.599380      -69.564354
 H         -73.432556     -203.376801      -71.162445
 H         -75.051682     -206.505524      -69.062218
 H         -75.270859     -205.080658      -68.012566
 H         -73.071503     -204.938965      -69.040169
 H         -73.668121     -205.350113      -70.680893
