20
 generated by VMD
 C         -31.749189      -75.835487      -23.998371
 N         -31.074533      -76.249687      -24.820187
 H         -29.570784      -78.485779      -22.175251
 H         -31.968611      -75.433319      -23.115801
 C         -28.582163      -78.133682      -22.058701
 C         -27.567545      -78.308876      -23.212309
 C         -28.189400      -78.131996      -20.666510
 C         -26.284397      -77.540581      -22.919455
 C         -26.801981      -77.595459      -20.495218
 C         -25.721769      -77.929665      -21.554968
 H         -28.119097      -77.841515      -24.179802
 H         -27.352468      -79.387154      -23.622168
 H         -28.862463      -77.533226      -20.153931
 H         -28.311287      -79.047104      -20.078287
 H         -26.341192      -76.473816      -23.147305
 H         -25.598082      -77.926094      -23.633776
 H         -26.506826      -77.967392      -19.424955
 H         -26.832851      -76.508537      -20.410334
 H         -24.858009      -77.243324      -21.383257
 H         -25.527718      -79.041672      -21.450871
