20
 generated by VMD
 C         -71.216301     -198.967575      -64.507179
 N         -70.420135     -198.618835      -65.254868
 H         -72.312561     -196.540436      -66.454071
 H         -72.167778     -199.189407      -64.011108
 C         -73.018333     -195.974121      -67.040688
 C         -73.215454     -194.495636      -66.644035
 C         -73.490265     -196.500076      -68.393105
 C         -73.371826     -193.576248      -67.836983
 C         -74.739967     -195.605652      -68.721687
 C         -74.350288     -194.109375      -68.941452
 H         -72.276390     -194.248978      -66.121910
 H         -74.204849     -194.429337      -66.049034
 H         -72.817177     -196.358902      -69.282051
 H         -73.944931     -197.470963      -68.244324
 H         -72.391296     -193.691574      -68.269081
 H         -73.565590     -192.533478      -67.659813
 H         -75.546204     -195.511047      -68.000938
 H         -75.093521     -196.019043      -69.698006
 H         -73.981453     -193.865112      -70.025726
 H         -75.192825     -193.570419      -68.871208
