20
 generated by VMD
 C         -17.297516      -48.073193       -6.996382
 N         -16.785789      -47.107773       -6.829197
 H         -16.568636      -48.661358      -10.492056
 H         -15.593742      -48.498596      -11.862236
 C         -16.380133      -47.990612      -11.315995
 C         -15.797343      -46.648594      -10.869194
 C         -17.618950      -47.873520      -12.236236
 C         -15.638617      -45.654015      -12.110226
 C         -17.247829      -47.026371      -13.468368
 C         -16.852734      -45.627705      -13.024123
 H         -14.742759      -46.869694      -10.499619
 H         -16.459915      -46.239803      -10.086736
 H         -17.879105      -48.884670      -12.615607
 H         -18.449902      -47.439075      -11.630894
 H         -14.765399      -46.008572      -12.706740
 H         -15.372828      -44.654530      -11.742034
 H         -18.044109      -46.943714      -14.164438
 H         -16.407530      -47.509087      -14.096092
 H         -16.721550      -45.001453      -13.909335
 H         -17.674149      -45.191452      -12.507771
