20
 generated by VMD
 C         -22.387445      -52.247211      -11.545304
 N         -22.089304      -52.752777      -10.540288
 H         -19.708849      -52.669624      -14.392900
 H         -22.506327      -51.746876      -12.457111
 C         -18.824625      -52.341549      -13.940247
 C         -17.853447      -51.624065      -14.818037
 C         -18.542080      -52.523392      -12.470033
 C         -16.491013      -52.128132      -14.590447
 C         -17.244959      -51.791000      -12.071853
 C         -16.138481      -52.218788      -13.127426
 H         -17.738852      -50.633804      -14.499282
 H         -18.165676      -51.613773      -15.883568
 H         -19.391523      -52.088688      -11.920976
 H         -18.453524      -53.567448      -12.233757
 H         -15.777581      -51.513676      -15.187063
 H         -16.385580      -53.172352      -14.993675
 H         -16.909077      -52.050476      -11.098990
 H         -17.423962      -50.660027      -12.055799
 H         -15.243593      -51.624523      -12.875998
 H         -15.814962      -53.257793      -12.921056
