20
 generated by VMD
 C         -13.430237      -30.815065       -8.308570
 N         -13.177973      -30.041702       -9.077823
 H         -11.202429      -31.858046       -6.165647
 H         -11.519146      -31.960365       -4.358763
 C         -11.162411      -32.538177       -5.285783
 C          -9.685886      -32.990509       -5.060886
 C         -12.105818      -33.723156       -5.504570
 C          -9.651503      -34.028263       -3.984431
 C         -11.963734      -34.770004       -4.323946
 C         -10.493158      -35.228886       -4.205882
 H          -9.164825      -32.138065       -4.736828
 H          -9.264059      -33.291393       -6.063856
 H         -13.116853      -33.316212       -5.502375
 H         -11.939326      -34.212860       -6.458837
 H          -9.882347      -33.633919       -3.024986
 H          -8.644770      -34.297543       -3.917431
 H         -12.613982      -35.636917       -4.568653
 H         -12.317654      -34.399834       -3.405330
 H         -10.405943      -35.890755       -3.315362
 H         -10.111487      -35.692066       -5.087418
