20
 generated by VMD
 C         -49.694210     -127.282372      -40.045353
 N         -49.220387     -126.781403      -39.099171
 H         -46.860893     -126.711128      -42.234989
 H         -49.872635     -127.785805      -40.980221
 C         -46.354717     -126.156265      -41.509602
 C         -45.242470     -126.564629      -40.501053
 C         -46.753670     -124.642998      -41.376995
 C         -44.040298     -125.588936      -40.492455
 C         -45.635117     -123.711479      -41.416397
 C         -44.516777     -124.165573      -40.510139
 H         -44.967670     -127.522842      -40.696888
 H         -45.605530     -126.421356      -39.457047
 H         -47.504230     -124.343239      -42.103840
 H         -47.137653     -124.440384      -40.413342
 H         -43.452724     -125.867424      -41.359966
 H         -43.433270     -125.787003      -39.610973
 H         -45.794601     -122.686462      -41.039658
 H         -45.201481     -123.442566      -42.450619
 H         -43.622829     -123.482864      -40.470753
 H         -45.019901     -124.005913      -39.561840
