20
 generated by VMD
 C         -29.424994      -74.108505      -20.358784
 N         -30.202007      -74.981415      -20.254457
 H         -26.415222      -74.089409      -18.946184
 H         -28.680033      -73.282135      -20.640369
 C         -26.317919      -74.004753      -20.027699
 C         -25.883272      -75.180374      -20.859442
 C         -25.891685      -72.613388      -20.372225
 C         -26.012201      -74.906288      -22.295839
 C         -26.088219      -72.387459      -21.845194
 C         -25.469437      -73.540817      -22.730106
 H         -26.619152      -75.999710      -20.632936
 H         -24.901573      -75.257858      -20.613836
 H         -26.509333      -71.948715      -19.893696
 H         -24.805565      -72.448738      -20.278910
 H         -27.053759      -75.077087      -22.594332
 H         -25.450436      -75.594360      -22.941690
 H         -25.692551      -71.478409      -22.387108
 H         -27.168606      -72.265915      -22.107752
 H         -25.842840      -73.535583      -23.726057
 H         -24.344843      -73.548698      -22.674461
