20
 generated by VMD
 C         -37.016315      -98.395248      -25.655043
 N         -36.561287      -98.428810      -26.730230
 H         -36.221127      -96.162682      -28.564459
 H         -37.498379      -98.306854      -24.760582
 C         -35.628311      -95.579643      -29.362547
 C         -35.731625      -96.417290      -30.592247
 C         -34.474106      -94.721481      -29.190018
 C         -35.118187      -95.732300      -31.856218
 C         -33.822960      -94.076683      -30.437637
 C         -33.694908      -95.128029      -31.642834
 H         -36.760262      -96.636406      -30.765547
 H         -35.269516      -97.400223      -30.401201
 H         -34.618515      -93.849342      -28.494854
 H         -33.703945      -95.430725      -28.769577
 H         -35.701794      -94.943970      -32.376469
 H         -34.939751      -96.568878      -32.580639
 H         -32.791454      -93.671318      -30.152540
 H         -34.456268      -93.270035      -30.689682
 H         -33.248226      -94.618240      -32.691380
 H         -33.107494      -95.944511      -31.387424
