20
 generated by VMD
 C         -76.623024     -203.165573      -66.662117
 N         -77.362320     -203.637680      -65.882378
 H         -75.578072     -200.617462      -69.031853
 H         -75.795418     -202.633896      -67.204391
 C         -74.758728     -199.949890      -69.008453
 C         -74.864845     -198.439331      -68.666229
 C         -73.576645     -200.381866      -69.757530
 C         -73.435982     -197.686615      -68.805099
 C         -73.304878     -199.352310      -70.857521
 C         -72.755257     -198.092606      -70.145470
 H         -75.221344     -198.374557      -67.533806
 H         -75.638657     -197.976349      -69.302681
 H         -72.618614     -200.570038      -69.183945
 H         -73.922577     -201.327454      -70.178688
 H         -72.880341     -198.136215      -68.009987
 H         -73.256393     -196.617203      -68.588493
 H         -74.223991     -198.988464      -71.266594
 H         -72.569931     -199.825821      -71.540726
 H         -71.615417     -198.203506      -69.909355
 H         -72.786324     -197.290405      -70.836693
