20
 generated by VMD
 C         -54.018570     -147.993546      -45.456097
 N         -54.532154     -148.055893      -44.448921
 H         -54.390396     -147.938629      -48.517742
 H         -53.417412     -147.784485      -46.343781
 C         -54.423435     -146.945129      -48.993999
 C         -53.145023     -146.700562      -49.907051
 C         -55.131718     -145.818115      -48.243435
 C         -53.392063     -145.422348      -50.756374
 C         -55.158253     -144.484863      -49.210136
 C         -53.745781     -144.196716      -49.889828
 H         -53.248642     -147.544022      -50.656143
 H         -52.158741     -146.774750      -49.563110
 H         -56.186859     -146.043671      -47.882092
 H         -54.557705     -145.505768      -47.382336
 H         -54.237450     -145.562332      -51.448730
 H         -52.506626     -145.102600      -51.446560
 H         -55.475342     -143.683273      -48.676895
 H         -55.874977     -144.804718      -50.005676
 H         -53.659790     -143.282181      -50.465866
 H         -53.096977     -143.894394      -49.092758
