20
 generated by VMD
 C         -48.240845     -135.399155      -46.116291
 N         -47.408607     -135.075211      -46.894199
 H         -51.448002     -134.829437      -45.659668
 H         -48.943390     -135.672470      -45.269836
 C         -51.358978     -135.642105      -44.990646
 C         -52.014622     -136.823486      -45.457100
 C         -51.287308     -135.468353      -43.437634
 C         -51.390167     -138.073944      -44.805889
 C         -50.688023     -136.689026      -42.871944
 C         -51.354000     -137.937485      -43.238922
 H         -51.974255     -136.888535      -46.600243
 H         -53.064259     -136.684082      -45.188141
 H         -50.741985     -134.570862      -43.156773
 H         -52.391201     -135.229736      -43.207619
 H         -50.360859     -138.263351      -45.097553
 H         -51.906399     -138.963669      -45.003052
 H         -50.755898     -136.594162      -41.812683
 H         -49.697327     -136.741211      -43.226097
 H         -50.733078     -138.824707      -42.803452
 H         -52.317345     -137.872849      -42.921200
