20
 generated by VMD
 C         -70.656715     -198.794952      -64.327202
 N         -70.149216     -198.403763      -65.309532
 H         -72.298149     -196.524704      -66.802818
 H         -71.147934     -199.009644      -63.395687
 C         -73.161613     -195.909546      -67.014336
 C         -73.317581     -194.507095      -66.592010
 C         -74.062531     -196.342255      -68.108414
 C         -73.248978     -193.438690      -67.785332
 C         -74.829849     -195.236496      -68.831657
 C         -73.942749     -194.006744      -68.937164
 H         -72.513878     -194.367401      -65.856758
 H         -74.238922     -194.415222      -66.115311
 H         -73.478233     -196.945923      -68.837776
 H         -74.859062     -197.125839      -67.866951
 H         -72.194839     -193.295914      -68.041534
 H         -73.753014     -192.494965      -67.427429
 H         -75.733192     -194.826248      -68.407539
 H         -75.144073     -195.548813      -69.817169
 H         -73.240166     -194.098068      -69.710693
 H         -74.554489     -192.991074      -69.203766
