20
 generated by VMD
 C         -58.135571     -161.860748      -56.268780
 N         -57.166756     -161.990524      -56.896187
 H         -59.812962     -165.240021      -55.057163
 H         -59.051708     -161.734039      -55.751682
 C         -60.512760     -164.343857      -54.897167
 C         -60.455055     -163.936920      -53.452362
 C         -61.721390     -164.523392      -55.667702
 C         -61.553490     -162.962646      -52.998833
 C         -62.660179     -163.502731      -55.206764
 C         -62.832043     -163.377426      -53.719135
 H         -59.465939     -163.548080      -53.199074
 H         -60.613968     -164.777863      -52.915649
 H         -61.602810     -164.324921      -56.746441
 H         -62.108887     -165.579224      -55.567585
 H         -61.285736     -162.058395      -53.445377
 H         -61.658154     -162.981262      -51.937424
 H         -63.715782     -163.632629      -55.548302
 H         -62.493511     -162.518921      -55.619366
 H         -63.473175     -162.548065      -53.557083
 H         -63.174599     -164.301926      -53.245537
