20
 generated by VMD
 C         -57.829788     -161.964676      -56.176571
 N         -57.144527     -162.092606      -57.146935
 H         -59.592308     -164.272232      -55.343159
 H         -58.551094     -161.891663      -55.337162
 C         -60.517574     -164.300507      -54.867901
 C         -60.611122     -164.185226      -53.422546
 C         -61.773712     -164.651520      -55.623802
 C         -61.709003     -163.244705      -53.104496
 C         -62.747833     -163.568985      -55.301151
 C         -63.022324     -163.393311      -53.835575
 H         -59.712799     -163.673279      -53.007965
 H         -60.838963     -165.146484      -52.777817
 H         -61.623245     -164.536911      -56.728168
 H         -62.110836     -165.608047      -55.356480
 H         -61.308701     -162.175690      -53.125385
 H         -61.965446     -163.457047      -51.987747
 H         -63.767872     -163.793579      -55.754105
 H         -62.254486     -162.596527      -55.624065
 H         -63.759716     -162.498871      -53.637081
 H         -63.612644     -164.252136      -53.371609
