20
 generated by VMD
 C         -41.097511     -119.287231      -34.727810
 N         -40.214966     -119.196236      -35.427067
 H         -43.473728     -117.369804      -36.321434
 H         -42.045719     -119.523537      -34.153267
 C         -43.911575     -117.549255      -37.329288
 C         -42.977516     -117.827843      -38.494839
 C         -45.313946     -116.953613      -37.587372
 C         -43.700775     -118.483498      -39.635719
 C         -46.043663     -117.459145      -38.805771
 C         -44.952297     -117.714378      -39.926563
 H         -42.039505     -118.272293      -38.308353
 H         -42.588741     -116.850349      -38.655762
 H         -45.988220     -116.951950      -36.625172
 H         -45.146954     -115.880585      -37.788769
 H         -43.736130     -119.490814      -39.343288
 H         -42.989647     -118.484962      -40.545834
 H         -46.944160     -116.832062      -39.228901
 H         -46.518131     -118.393173      -38.449181
 H         -45.514648     -118.297699      -40.745792
 H         -44.658688     -116.746597      -40.380810
