20
 generated by VMD
 C         -67.724472     -191.736420      -67.100601
 N         -66.795425     -192.387207      -66.816269
 H         -70.658913     -189.256851      -66.245575
 H         -68.445618     -190.980743      -67.198738
 C         -71.286240     -189.712692      -65.524605
 C         -71.739243     -191.143524      -65.740685
 C         -71.289749     -189.267990      -64.150703
 C         -73.169304     -191.284882      -65.307205
 C         -72.611534     -189.497559      -63.495712
 C         -73.350204     -190.866821      -63.827415
 H         -71.153046     -191.767868      -65.011627
 H         -71.648415     -191.350082      -66.756218
 H         -70.522888     -189.873749      -63.617054
 H         -71.143600     -188.236679      -64.180763
 H         -73.595039     -192.326096      -65.599007
 H         -73.857338     -190.628677      -65.900726
 H         -73.370430     -188.652359      -63.607498
 H         -72.373070     -189.339951      -62.351143
 H         -72.700798     -191.688324      -63.263420
 H         -74.403091     -190.837616      -63.543629
