20
 generated by VMD
 C         -11.157775      -33.892651       -9.357841
 N         -11.339318      -33.792896       -8.266910
 H         -11.599121      -37.647915       -8.185559
 H         -11.994663      -36.697067       -6.723364
 C         -12.257733      -37.631916       -7.296819
 C         -12.270648      -38.941753       -6.551546
 C         -13.638057      -37.372242       -7.932533
 C         -13.397930      -39.079395       -5.536893
 C         -14.774530      -37.508259       -6.985290
 C         -14.745644      -38.753342       -6.172610
 H         -11.315929      -39.043404       -6.027840
 H         -12.383614      -39.714233       -7.340333
 H         -13.548668      -36.294769       -8.312175
 H         -13.750941      -38.085743       -8.770588
 H         -13.220272      -38.307838       -4.756934
 H         -13.410797      -40.124413       -5.095264
 H         -15.782522      -37.446510       -7.491214
 H         -14.793204      -36.714607       -6.269919
 H         -15.531545      -38.789810       -5.443592
 H         -14.973626      -39.543709       -6.907484
