20
 generated by VMD
 C         -10.766360      -37.322254       -8.268840
 N         -10.787457      -36.321060       -7.765276
 H         -13.324332      -37.329021       -7.741979
 H         -14.314550      -37.966621       -6.455884
 C         -13.940864      -38.239677       -7.416701
 C         -13.113246      -39.566807       -7.344934
 C         -15.131263      -38.331623       -8.447747
 C         -13.919112      -40.836956       -7.312295
 C         -15.975157      -39.614941       -8.198149
 C         -15.053871      -40.867535       -8.368053
 H         -12.443534      -39.473885       -6.436735
 H         -12.515270      -39.568535       -8.317095
 H         -15.829015      -37.526035       -8.363275
 H         -14.718345      -38.443192       -9.455287
 H         -14.430964      -40.787922       -6.347212
 H         -13.312541      -41.714733       -7.479507
 H         -16.906622      -39.672066       -8.778466
 H         -16.262043      -39.572128       -7.132882
 H         -15.638726      -41.772537       -8.254668
 H         -14.578889      -40.936005       -9.369898
