20
 generated by VMD
 C         -61.653557     -156.077713      -54.161617
 N         -61.176342     -154.987289      -54.246025
 H         -58.748390     -155.119492      -52.003429
 H         -62.079597     -157.082474      -54.355743
 C         -57.741474     -155.206970      -51.565174
 C         -57.444958     -154.424927      -50.329559
 C         -56.665180     -155.405182      -52.559589
 C         -56.120567     -155.000198      -49.558598
 C         -55.455681     -155.925232      -51.773800
 C         -55.019836     -155.115158      -50.523716
 H         -58.321804     -154.592331      -49.696091
 H         -57.319180     -153.370712      -50.500202
 H         -57.017139     -156.216354      -53.310490
 H         -56.202240     -154.645111      -53.116264
 H         -56.313431     -155.979095      -49.191353
 H         -55.742485     -154.205841      -48.907616
 H         -54.636005     -155.976059      -52.558430
 H         -55.702980     -156.869614      -51.357456
 H         -54.111794     -155.565369      -50.119141
 H         -54.678913     -154.087524      -50.874847
