20
 generated by VMD
 C         -58.606186     -160.725510      -56.808125
 N         -58.606297     -159.890274      -57.687786
 H         -58.959049     -163.854004      -54.959122
 H         -58.706463     -161.434555      -55.983402
 C         -59.705666     -163.423218      -54.310101
 C         -59.454712     -163.278549      -52.840424
 C         -61.136280     -163.445801      -54.841698
 C         -60.400204     -162.148712      -52.269901
 C         -61.938877     -162.268616      -54.222916
 C         -61.910461     -162.211716      -52.755466
 H         -58.429386     -163.011047      -52.613930
 H         -59.453220     -164.259048      -52.345680
 H         -61.049416     -163.248825      -55.972065
 H         -61.661068     -164.381546      -54.833950
 H         -60.007301     -161.235107      -52.633377
 H         -60.375454     -162.215759      -51.179096
 H         -62.903244     -162.514557      -54.687874
 H         -61.461777     -161.254257      -54.564198
 H         -62.492302     -161.408722      -52.312309
 H         -62.319866     -163.143860      -52.287888
