20
 generated by VMD
 C         -69.042274     -187.237900      -67.812965
 N         -67.933372     -187.421844      -67.595512
 H         -68.153107     -187.098572      -64.101784
 H         -70.102028     -187.050247      -68.023918
 C         -69.044746     -187.429443      -63.581512
 C         -68.996124     -187.918213      -62.189095
 C         -70.398209     -186.903854      -64.072426
 C         -70.257599     -188.655106      -61.723022
 C         -71.608696     -187.832611      -63.718842
 C         -71.603676     -188.233704      -62.224144
 H         -68.843559     -187.042679      -61.642239
 H         -68.241074     -188.596161      -61.898537
 H         -70.416237     -185.962646      -63.519798
 H         -70.337097     -186.780060      -65.167236
 H         -70.256691     -188.642380      -60.664078
 H         -70.032005     -189.740616      -61.932365
 H         -71.614616     -188.704742      -64.334587
 H         -72.585449     -187.449005      -63.890388
 H         -72.213982     -187.423843      -61.689636
 H         -72.201286     -189.183014      -61.931717
