20
 generated by VMD
 C         -36.798363      -98.197334      -27.161570
 N         -37.834290      -98.317558      -26.646343
 H         -36.499424      -96.331116      -28.919498
 H         -35.851337      -98.123077      -27.831579
 C         -35.554779      -96.499046      -29.389410
 C         -35.443737      -97.149818      -30.757631
 C         -34.472336      -95.507874      -29.042517
 C         -35.049194      -96.117668      -31.845575
 C         -34.221794      -94.533836      -30.203157
 C         -33.847591      -95.331436      -31.555910
 H         -36.401855      -97.673698      -31.022951
 H         -34.725224      -97.961166      -30.768951
 H         -34.605892      -94.794662      -28.243021
 H         -33.652107      -96.147301      -28.786486
 H         -35.893326      -95.419716      -31.991133
 H         -34.772331      -96.549858      -32.739483
 H         -33.532036      -93.711090      -29.927048
 H         -35.132664      -93.931023      -30.358641
 H         -33.639202      -94.634331      -32.268608
 H         -32.994297      -95.965889      -31.297520
