20
 generated by VMD
 C         -60.557167     -155.982056      -54.254398
 N         -60.966007     -156.306274      -55.246990
 H         -59.298515     -155.849014      -51.179054
 H         -60.179714     -155.453186      -53.378239
 C         -58.291958     -155.548111      -51.475964
 C         -57.587936     -154.569443      -50.562881
 C         -57.547466     -156.343903      -52.384640
 C         -56.293743     -155.358063      -49.985809
 C         -56.417927     -157.080704      -51.815464
 C         -55.542027     -156.125961      -51.038563
 H         -58.304100     -154.327499      -49.709919
 H         -57.398354     -153.607437      -51.096756
 H         -58.100811     -157.064285      -52.953121
 H         -57.181232     -155.763046      -53.156025
 H         -56.563358     -156.142822      -49.352585
 H         -55.684208     -154.611145      -49.473820
 H         -55.897900     -157.507217      -52.725384
 H         -56.689465     -157.842987      -51.086617
 H         -54.837643     -156.691803      -50.503284
 H         -54.974991     -155.445038      -51.760265
