20
 generated by VMD
 C         -60.209042     -156.494659      -55.745621
 N         -60.848389     -155.485703      -55.929169
 H         -59.806484     -157.824265      -52.985260
 H         -59.627205     -157.438995      -55.703739
 C         -58.762249     -157.942657      -52.717056
 C         -57.841980     -156.776367      -52.597691
 C         -58.291904     -159.232574      -52.091995
 C         -57.300915     -156.608276      -51.109142
 C         -57.732471     -159.018799      -50.717850
 C         -56.775948     -157.859619      -50.558903
 H         -58.258400     -155.746140      -52.744068
 H         -56.975143     -157.120621      -53.223778
 H         -59.157383     -159.895859      -51.886040
 H         -57.621170     -159.764328      -52.857796
 H         -58.081394     -156.332169      -50.483208
 H         -56.632671     -155.745926      -51.140274
 H         -57.231552     -160.033600      -50.429298
 H         -58.508015     -158.866806      -49.921616
 H         -56.450924     -157.834686      -49.578365
 H         -55.826649     -158.158188      -51.131237
