20
 generated by VMD
 C         -29.819580      -79.336060      -26.255419
 N         -30.730455      -78.682320      -25.886660
 H         -28.556509      -82.965057      -25.662115
 H         -28.947842      -79.977226      -26.548113
 C         -28.994705      -83.014717      -24.636366
 C         -28.470610      -82.029778      -23.667650
 C         -29.954445      -84.174332      -24.175892
 C         -29.528578      -81.440231      -22.913931
 C         -30.999172      -83.523537      -23.239872
 C         -30.465328      -82.509521      -22.237364
 H         -27.973299      -81.136795      -24.189619
 H         -27.721800      -82.607445      -23.038801
 H         -30.412920      -84.635788      -25.001442
 H         -29.410967      -84.920303      -23.582165
 H         -30.101826      -80.704094      -23.482519
 H         -29.344448      -80.868462      -21.947794
 H         -31.426918      -84.309990      -22.672449
 H         -31.803125      -83.198380      -23.879107
 H         -31.271265      -81.995094      -21.745932
 H         -29.893869      -83.056938      -21.563416
