20
 generated by VMD
 C         -45.130890     -122.887199      -35.416061
 N         -45.526516     -123.920700      -35.127361
 H         -45.126263     -122.632576      -38.771858
 H         -44.621864     -121.913383      -35.541508
 C         -44.909214     -121.724541      -39.226933
 C         -43.389313     -121.404259      -39.672001
 C         -45.977982     -120.712059      -39.520058
 C         -43.315800     -120.675674      -40.918049
 C         -45.784843     -120.020592      -40.900108
 C         -44.381847     -119.540031      -41.047867
 H         -42.627548     -122.135063      -39.597530
 H         -43.082321     -120.757668      -38.785561
 H         -46.944595     -121.133911      -39.454586
 H         -45.965034     -119.884491      -38.809971
 H         -43.425678     -121.416786      -41.791348
 H         -42.260689     -120.338203      -41.136002
 H         -46.558582     -119.178635      -40.867107
 H         -46.082443     -120.780022      -41.736126
 H         -44.352936     -119.114258      -42.050266
 H         -44.232723     -118.796677      -40.325119
