20
 generated by VMD
 C         -59.060261     -168.354507      -55.137333
 N         -58.063049     -168.850174      -54.876774
 H         -62.598377     -169.170502      -55.804642
 H         -59.985653     -167.815140      -55.288261
 C         -62.533905     -168.212631      -56.313538
 C         -62.684017     -168.136337      -57.828903
 C         -62.809437     -166.866608      -55.594486
 C         -64.134094     -167.624191      -58.237041
 C         -64.196007     -166.275787      -56.050060
 C         -64.326126     -166.218964      -57.566017
 H         -62.554455     -169.215134      -58.295517
 H         -61.867172     -167.497635      -58.309723
 H         -62.909229     -166.956497      -54.586700
 H         -62.061024     -166.113602      -55.873547
 H         -64.910965     -168.368332      -57.866020
 H         -64.191208     -167.469833      -59.339005
 H         -64.293587     -165.186661      -55.747627
 H         -64.894547     -166.828720      -55.342365
 H         -65.312202     -165.850449      -57.767246
 H         -63.595993     -165.574646      -57.949528
