20
 generated by VMD
 C         -46.708042     -124.776741      -37.972157
 N         -46.989998     -124.445175      -36.883919
 H         -44.726295     -122.263245      -37.677570
 H         -46.270103     -124.786789      -38.933098
 C         -44.834938     -122.328110      -38.762432
 C         -43.541389     -122.409592      -39.547478
 C         -45.970039     -121.654633      -39.350567
 C         -43.720406     -122.677109      -41.034805
 C         -46.125332     -121.735565      -40.836346
 C         -44.802273     -121.889534      -41.645901
 H         -42.943436     -123.214027      -39.255089
 H         -42.919991     -121.526329      -39.276917
 H         -46.948753     -121.846512      -38.855316
 H         -45.717377     -120.625290      -39.223564
 H         -43.886948     -123.725319      -41.160954
 H         -42.696342     -122.508621      -41.460598
 H         -46.710789     -120.901756      -41.295429
 H         -46.580486     -122.698639      -41.121101
 H         -44.980797     -122.258537      -42.662270
 H         -44.365860     -120.859711      -41.623924
