20
 generated by VMD
 C         -40.788456     -103.857330      -37.308609
 N         -40.537369     -104.684578      -36.526165
 H         -39.853054     -106.274818      -34.277046
 H         -41.175385     -102.941124      -37.808189
 C         -39.346535     -106.863434      -33.525936
 C         -38.151875     -106.319687      -32.852989
 C         -39.911236     -108.315819      -33.237953
 C         -38.009060     -106.888184      -31.509453
 C         -39.562038     -108.846321      -31.845062
 C         -38.164085     -108.396027      -31.554205
 H         -38.150249     -105.247818      -33.032921
 H         -37.304413     -106.596901      -33.384232
 H         -40.937649     -108.134193      -33.653000
 H         -39.425934     -108.967728      -34.001312
 H         -38.730076     -106.555275      -30.826836
 H         -37.023781     -106.706726      -31.094236
 H         -39.744217     -109.944244      -31.804367
 H         -40.291935     -108.468788      -31.130264
 H         -37.943951     -108.833298      -30.523352
 H         -37.369614     -108.782356      -32.200920
