20
 generated by VMD
 C         -28.739998      -73.555984      -19.077223
 N         -29.560469      -74.106201      -18.528194
 H         -25.779467      -72.882690      -18.675211
 H         -27.903265      -72.977028      -19.694386
 C         -25.525024      -72.708679      -19.772266
 C         -25.009197      -73.778587      -20.691593
 C         -25.758013      -71.285027      -20.373545
 C         -25.429129      -73.691429      -22.152075
 C         -26.284861      -71.337074      -21.905331
 C         -25.532406      -72.323502      -22.833374
 H         -25.255270      -74.901901      -20.340891
 H         -23.902552      -73.656853      -20.711582
 H         -26.541050      -70.757011      -19.782299
 H         -24.831045      -70.731697      -20.303753
 H         -26.426060      -74.092766      -22.117958
 H         -24.810709      -74.397362      -22.692934
 H         -26.444880      -70.331093      -22.503490
 H         -27.309515      -71.852837      -21.781473
 H         -26.128189      -72.391335      -23.801102
 H         -24.538115      -72.085304      -23.125044
