20
 generated by VMD
 C         -22.391056      -67.603065      -16.129076
 N         -21.248413      -67.466293      -16.050301
 H         -23.768600      -65.940689      -17.803179
 H         -23.449846      -67.711624      -16.531298
 C         -24.487720      -66.286758      -18.542435
 C         -23.843826      -66.838463      -19.904776
 C         -25.972893      -66.400406      -18.533321
 C         -24.534206      -68.188095      -20.473509
 C         -26.402733      -67.849190      -18.880289
 C         -26.086981      -68.249123      -20.328175
 H         -22.767572      -67.054726      -19.562948
 H         -23.757040      -65.964409      -20.587889
 H         -26.374557      -66.267990      -17.568146
 H         -26.520180      -65.534966      -18.988461
 H         -24.083954      -69.047890      -19.927488
 H         -24.133162      -68.313118      -21.543034
 H         -27.485502      -67.879654      -18.752996
 H         -25.973328      -68.724304      -18.297207
 H         -26.321587      -69.299835      -20.513933
 H         -26.612991      -67.487450      -20.960691
