20
 generated by VMD
 C         -69.806763     -196.595840      -65.404747
 N         -68.654808     -196.590240      -65.439926
 H         -72.016273     -194.069077      -64.911842
 H         -70.891212     -196.819885      -65.400444
 C         -72.299843     -193.867538      -65.948074
 C         -72.324242     -192.465805      -66.522720
 C         -72.919044     -194.817841      -66.927620
 C         -73.796768     -192.062469      -66.734650
 C         -74.337921     -194.394211      -67.355972
 C         -74.326553     -192.999786      -67.832001
 H         -71.821251     -192.409836      -67.429771
 H         -71.867104     -191.814301      -65.752396
 H         -72.213707     -194.909042      -67.841667
 H         -72.962753     -195.790756      -66.269394
 H         -73.991058     -191.088409      -67.133369
 H         -74.293617     -192.174454      -65.796463
 H         -75.003761     -194.490784      -66.515411
 H         -74.653397     -195.139313      -68.118637
 H         -73.763527     -192.859604      -68.783897
 H         -75.257126     -192.657867      -68.004120
