20
 generated by VMD
 C         -38.413681     -109.145355      -36.557823
 N         -37.296246     -108.837822      -36.373684
 H         -42.156178     -109.837120      -36.372215
 H         -39.377323     -109.586555      -36.802235
 C         -42.200356     -110.701828      -35.746826
 C         -41.692520     -112.015579      -35.940536
 C         -42.787197     -110.353432      -34.474457
 C         -40.855560     -112.548431      -34.733662
 C         -41.852940     -110.694923      -33.299759
 C         -41.363552     -112.155914      -33.372631
 H         -40.994415     -112.020515      -36.742207
 H         -42.400299     -112.808319      -36.237724
 H         -42.848747     -109.281334      -34.388592
 H         -43.737965     -110.730865      -34.304287
 H         -39.917446     -112.082268      -34.790569
 H         -40.694633     -113.655769      -34.952610
 H         -42.377270     -110.578171      -32.330093
 H         -41.011913     -110.000130      -33.342319
 H         -40.494007     -112.134285      -32.622643
 H         -42.138859     -112.738617      -33.025570
