20
 generated by VMD
 C         -12.743131      -30.087378       -7.640203
 N         -13.662159      -29.540813       -7.953777
 H         -11.332649      -30.251404       -4.888046
 H         -10.160144      -30.502871       -3.634229
 C         -10.729706      -30.986317       -4.411623
 C          -9.725389      -31.416527       -5.412326
 C         -11.629725      -32.141689       -3.919235
 C          -8.885696      -32.615871       -4.933539
 C         -10.718133      -33.275993       -3.307046
 C          -9.657804      -33.767986       -4.206411
 H          -9.022472      -30.590446       -5.801307
 H         -10.299830      -31.717758       -6.278371
 H         -12.428700      -31.874016       -3.223651
 H         -12.131207      -32.528866       -4.801002
 H          -8.122582      -32.262516       -4.281800
 H          -8.292413      -32.956509       -5.772681
 H         -11.337205      -34.070663       -2.966920
 H         -10.256947      -32.845203       -2.342722
 H          -8.950469      -34.374184       -3.710378
 H         -10.049551      -34.492210       -4.919187
