20
 generated by VMD
 C         -26.978802      -72.144196      -17.514725
 N         -27.471149      -73.161629      -17.298855
 H         -24.583757      -70.029366      -18.771912
 H         -26.210878      -71.288147      -17.848808
 C         -25.052711      -70.492622      -19.628580
 C         -24.315800      -71.563644      -20.365185
 C         -25.647223      -69.536705      -20.558573
 C         -25.186743      -72.212318      -21.394762
 C         -26.553467      -70.152573      -21.479647
 C         -25.892288      -71.113045      -22.359121
 H         -23.941498      -72.203712      -19.645754
 H         -23.540955      -71.009865      -20.735937
 H         -26.206425      -68.715775      -20.052134
 H         -24.853798      -68.963745      -20.977123
 H         -25.970181      -72.717545      -20.827150
 H         -24.713577      -73.002838      -22.051800
 H         -27.056562      -69.433708      -22.060827
 H         -27.377996      -70.619240      -21.016691
 H         -26.555365      -71.671799      -23.022913
 H         -25.057550      -70.706764      -22.992180
