20
 generated by VMD
 C          -5.965015      -20.934305        1.786682
 N          -5.937901      -21.994287        2.105193
 H          -5.092992      -18.470779       -1.131739
 H          -5.635138      -19.895920       -0.097520
 C          -5.745797      -19.377684       -1.126493
 C          -5.530435      -20.371265       -2.288270
 C          -7.103605      -18.730955       -1.271096
 C          -6.591277      -21.522144       -2.364995
 C          -8.235199      -19.775278       -1.326380
 C          -8.013933      -20.928143       -2.363991
 H          -4.536561      -20.748644       -2.189409
 H          -5.620056      -19.859301       -3.295905
 H          -7.348489      -18.032408       -0.412047
 H          -7.074333      -18.180696       -2.309734
 H          -6.463830      -22.185699       -1.519117
 H          -6.410368      -22.091316       -3.304183
 H          -9.192902      -19.261040       -1.589199
 H          -8.318548      -20.208321       -0.327931
 H          -8.708126      -21.738197       -2.056911
 H          -8.309373      -20.591236       -3.405847
