20
 generated by VMD
 C         -19.405664      -60.765701      -17.680586
 N         -20.170683      -59.916245      -17.745216
 H         -22.580198      -60.083015      -16.058203
 H         -18.881294      -61.645370      -17.488472
 C         -23.039368      -61.095829      -16.121140
 C         -23.171007      -61.731174      -17.398777
 C         -23.778929      -61.828972      -15.048104
 C         -22.895517      -63.284004      -17.589041
 C         -23.093987      -63.233562      -14.954789
 C         -23.229794      -64.006310      -16.306414
 H         -22.456007      -61.337578      -18.117407
 H         -24.111206      -61.499165      -17.844875
 H         -23.755644      -61.351707      -13.977354
 H         -24.804323      -61.955929      -15.419784
 H         -21.902081      -63.510017      -18.047573
 H         -23.645618      -63.543163      -18.395704
 H         -23.548332      -63.818321      -14.155561
 H         -22.030569      -63.122078      -14.841174
 H         -22.739229      -64.997696      -16.354258
 H         -24.302555      -64.102661      -16.349655
