20
 generated by VMD
 C         -41.257042     -102.835876      -35.745064
 N         -41.317028     -103.980247      -35.528713
 H         -39.232090     -104.554085      -33.721355
 H         -41.529713     -101.830696      -35.965889
 C         -38.686066     -105.107437      -33.070801
 C         -37.242626     -104.761612      -32.846107
 C         -39.111340     -106.419563      -32.602989
 C         -36.555298     -105.198479      -31.538883
 C         -38.588261     -106.744331      -31.196339
 C         -37.024395     -106.568237      -31.073626
 H         -37.050072     -103.634903      -32.929058
 H         -36.727612     -105.271828      -33.729885
 H         -40.158302     -106.436302      -32.633591
 H         -38.792336     -107.309090      -33.280670
 H         -36.867828     -104.557640      -30.648903
 H         -35.535252     -104.835045      -31.604053
 H         -38.880554     -107.826225      -31.000357
 H         -39.190201     -106.171555      -30.406517
 H         -36.841904     -106.725037      -29.936754
 H         -36.440437     -107.284828      -31.578148
