20
 generated by VMD
 C         -42.428596     -120.563965      -35.108421
 N         -42.527390     -121.196526      -34.125561
 H         -43.517353     -120.460648      -37.866600
 H         -42.557751     -119.815872      -35.960823
 C         -43.943443     -119.588524      -38.388840
 C         -43.077995     -119.128807      -39.489914
 C         -45.258442     -118.926476      -38.104767
 C         -43.906406     -118.990517      -40.777241
 C         -46.025730     -118.615486      -39.370838
 C         -45.111050     -118.015602      -40.482403
 H         -42.273914     -119.905891      -39.642799
 H         -42.553696     -118.122932      -39.242435
 H         -45.858860     -119.602280      -37.428764
 H         -45.092079     -118.115479      -37.418098
 H         -44.329159     -119.940132      -41.189972
 H         -43.075886     -118.769051      -41.525867
 H         -46.789093     -117.836273      -39.160667
 H         -46.550308     -119.501167      -39.736755
 H         -45.564949     -118.125771      -41.440735
 H         -44.830540     -117.040649      -40.215233
