20
 generated by VMD
 C         -60.667912     -153.403152      -51.937580
 N         -61.416138     -154.318237      -51.702290
 H         -57.588326     -153.835800      -51.811352
 H         -60.043587     -152.476318      -51.969376
 C         -56.680676     -153.429077      -51.387516
 C         -56.475323     -153.766266      -49.985073
 C         -56.052498     -152.227493      -52.019939
 C         -55.016861     -153.929062      -49.701817
 C         -54.558483     -152.411392      -51.682392
 C         -54.304176     -152.581833      -50.199104
 H         -56.793987     -154.758026      -49.822102
 H         -57.074059     -153.299484      -49.245701
 H         -56.228371     -152.205032      -53.075027
 H         -56.464523     -151.343246      -51.553982
 H         -54.603924     -154.770126      -50.230927
 H         -54.726425     -153.984222      -48.659607
 H         -53.992149     -151.584000      -51.977776
 H         -54.241161     -153.154755      -52.396275
 H         -53.218746     -152.693314      -49.872601
 H         -54.735367     -151.763962      -49.761929
