20
 generated by VMD
 C          -1.904319      -16.010422        1.952983
 N          -1.787329      -15.290530        2.804683
 H          -4.243254      -16.045517        0.290611
 H          -4.407795      -17.124949       -1.192704
 C          -4.928871      -16.696520       -0.274693
 C          -6.115306      -15.800127       -0.576368
 C          -5.334867      -17.759031        0.764064
 C          -7.385973      -16.517071       -0.945003
 C          -6.534354      -18.583836        0.219691
 C          -7.737378      -17.616877        0.034915
 H          -5.887693      -15.243157       -1.497957
 H          -6.254653      -15.085411        0.241371
 H          -4.526042      -18.389160        0.925884
 H          -5.654771      -17.265085        1.648713
 H          -7.266315      -17.006708       -1.952550
 H          -8.171322      -15.755494       -1.089716
 H          -6.749181      -19.391966        0.960530
 H          -6.312748      -19.083263       -0.716069
 H          -8.683852      -18.122330       -0.184108
 H          -7.853608      -17.231585        1.057987
