20
 generated by VMD
 C         -59.415176     -158.227402      -56.759884
 N         -58.624382     -158.571075      -57.456306
 H         -60.361172     -158.211304      -53.563381
 H         -60.129101     -157.911255      -56.014088
 C         -59.932751     -159.023529      -53.002743
 C         -58.624825     -158.931366      -52.520260
 C         -60.538387     -160.366608      -53.187679
 C         -58.315647     -160.015991      -51.488369
 C         -60.309780     -161.345444      -52.021496
 C         -58.810600     -161.367615      -51.945206
 H         -58.472069     -157.985748      -52.055969
 H         -57.876343     -159.059265      -53.325314
 H         -61.531853     -160.162003      -53.378086
 H         -60.080505     -160.776016      -54.113491
 H         -58.793873     -159.839584      -50.439240
 H         -57.213512     -159.972107      -51.439190
 H         -60.834785     -162.264725      -52.258003
 H         -60.635971     -160.968552      -51.086357
 H         -58.351746     -162.076721      -51.135994
 H         -58.343601     -161.578079      -52.948708
