20
 generated by VMD
 C         -59.539749     -169.239807      -55.775280
 N         -59.711674     -168.572037      -54.862324
 H         -63.056652     -170.225555      -56.384727
 H         -59.265770     -169.862000      -56.610626
 C         -62.968117     -169.151550      -56.575443
 C         -62.803780     -168.878006      -58.029816
 C         -63.309464     -168.009277      -55.578308
 C         -63.528378     -167.593369      -58.612503
 C         -64.078781     -166.827362      -56.173599
 C         -63.642879     -166.503632      -57.579247
 H         -63.256340     -169.700455      -58.640957
 H         -61.723694     -168.839447      -58.229496
 H         -63.828735     -168.474243      -54.753265
 H         -62.340801     -167.681152      -55.154095
 H         -64.537186     -168.001038      -58.929295
 H         -63.176132     -167.138107      -59.579067
 H         -63.940994     -165.970276      -55.573536
 H         -65.078743     -167.134689      -56.175938
 H         -64.149406     -165.570831      -57.999504
 H         -62.568169     -166.184219      -57.467468
