20
 generated by VMD
 C         -78.740273     -204.451736      -70.739838
 N         -79.800461     -204.218719      -70.239479
 H         -76.372002     -203.106430      -68.018486
 H         -77.755287     -204.594040      -71.295174
 C         -75.427818     -202.644501      -68.512306
 C         -75.755455     -201.682541      -69.597343
 C         -74.360016     -203.623672      -68.898651
 C         -74.745041     -201.691071      -70.734352
 C         -73.025833     -202.899200      -69.278244
 C         -73.353775     -201.809586      -70.381592
 H         -75.800713     -200.734131      -68.971619
 H         -76.758453     -201.794983      -69.955963
 H         -74.143517     -204.148422      -67.950401
 H         -74.739784     -204.280441      -69.685936
 H         -74.886314     -200.804459      -71.348709
 H         -74.916214     -202.522812      -71.380989
 H         -72.242874     -203.678772      -69.604385
 H         -72.600006     -202.384872      -68.354164
 H         -72.926743     -200.866501      -69.863609
 H         -72.804680     -202.170639      -71.259094
