20
 generated by VMD
 C         -47.959091     -134.007660      -47.594894
 N         -48.092876     -133.393326      -48.553501
 H         -49.508610     -134.127670      -44.193024
 H         -47.932262     -134.709229      -46.741188
 C         -50.097942     -134.940887      -43.684422
 C         -50.242729     -136.172195      -44.589642
 C         -51.069729     -134.813522      -42.589111
 C         -50.546146     -137.472809      -43.710922
 C         -51.419273     -136.031891      -41.808933
 C         -51.722046     -137.267578      -42.710960
 H         -49.267384     -136.265396      -45.146114
 H         -51.036957     -135.997009      -45.346931
 H         -50.624237     -134.206696      -41.759403
 H         -51.912312     -134.308868      -42.893185
 H         -49.642715     -137.906036      -43.367126
 H         -51.027660     -138.248276      -44.383896
 H         -52.197662     -135.722992      -41.060116
 H         -50.529583     -136.435455      -41.174004
 H         -51.856422     -138.278549      -42.140976
 H         -52.563488     -137.142609      -43.339447
