20
 generated by VMD
 C         -50.537540     -130.121918      -46.190990
 N         -50.859909     -130.156754      -45.128414
 H         -48.329567     -131.954285      -44.422939
 H         -49.965229     -129.777847      -47.043518
 C         -48.043564     -132.012268      -43.404816
 C         -48.260582     -133.268692      -42.591846
 C         -48.020233     -130.595505      -42.743282
 C         -47.752430     -133.167908      -41.206718
 C         -47.586723     -130.708939      -41.271687
 C         -48.137569     -131.868439      -40.479755
 H         -47.811440     -134.106201      -43.020828
 H         -49.379669     -133.512314      -42.573158
 H         -47.241047     -129.992996      -43.371475
 H         -49.016865     -130.160355      -42.826881
 H         -46.661343     -133.087357      -41.218494
 H         -48.087791     -134.017899      -40.586887
 H         -47.861111     -129.777023      -40.742271
 H         -46.371956     -130.792343      -41.338348
 H         -47.742172     -131.762543      -39.413788
 H         -49.227665     -131.848999      -40.254658
