20
 generated by VMD
 C         -28.192810      -82.386284      -26.787621
 N         -27.375416      -83.149254      -26.996620
 H         -31.144901      -84.061058      -26.583542
 H         -28.976931      -81.607735      -26.464016
 C         -31.629673      -84.743050      -25.803192
 C         -31.119381      -84.631142      -24.354786
 C         -32.153725      -86.176292      -26.216312
 C         -32.144146      -85.278984      -23.381199
 C         -33.128971      -86.735878      -25.135952
 C         -32.486965      -86.620880      -23.761042
 H         -30.949379      -83.615845      -24.105837
 H         -30.148031      -85.084854      -24.133654
 H         -32.747421      -86.089996      -27.122225
 H         -31.217981      -86.733032      -26.377527
 H         -33.027496      -84.669594      -23.339102
 H         -31.706327      -85.265915      -22.417019
 H         -33.484505      -87.766464      -25.492153
 H         -34.053665      -86.070267      -25.123703
 H         -33.260921      -86.995163      -23.113995
 H         -31.593445      -87.424484      -23.678532
