20
 generated by VMD
 C         -79.329659     -209.049072      -76.772774
 N         -79.020576     -210.022537      -76.187561
 H         -77.847725     -209.567581      -73.283981
 H         -79.645050     -208.025299      -77.214561
 C         -78.102516     -210.343262      -72.571152
 C         -77.081032     -210.738556      -71.494186
 C         -79.117447     -211.406937      -73.085236
 C         -77.805565     -211.539963      -70.329529
 C         -79.911865     -211.766922      -71.785034
 C         -78.940819     -212.411575      -70.807304
 H         -76.786011     -209.705811      -71.133766
 H         -76.103745     -211.256195      -71.874138
 H         -79.868057     -210.877975      -73.736855
 H         -78.710571     -212.282654      -73.626450
 H         -77.972130     -210.929031      -69.414612
 H         -77.090958     -212.324219      -69.994133
 H         -80.839790     -212.503647      -71.919113
 H         -80.372971     -210.951706      -71.352165
 H         -79.556320     -212.796204      -69.988182
 H         -78.406059     -213.284576      -71.226219
