20
 generated by VMD
 C         -19.843985      -60.140022      -17.750858
 N         -19.584759      -59.013309      -18.049906
 H         -22.698618      -59.782154      -15.800642
 H         -19.873337      -61.119934      -17.464956
 C         -22.966309      -60.855419      -16.011173
 C         -23.200857      -61.499554      -17.309536
 C         -23.310143      -61.594318      -14.670889
 C         -22.821711      -63.018375      -17.242817
 C         -22.650967      -62.967815      -14.799734
 C         -23.262861      -63.721287      -15.933555
 H         -22.852808      -60.889927      -18.194235
 H         -24.308037      -61.454376      -17.540440
 H         -22.954247      -61.166046      -13.766089
 H         -24.452812      -61.626617      -14.698565
 H         -21.705811      -63.154972      -17.285309
 H         -23.150293      -63.592510      -18.101442
 H         -22.905333      -63.495003      -13.905904
 H         -21.571711      -62.847416      -14.992019
 H         -23.037613      -64.752762      -15.990589
 H         -24.355095      -63.769665      -15.861731
