20
 generated by VMD
 C         -12.882040      -27.248283       -2.197088
 N         -11.857419      -27.484201       -1.829512
 H         -10.469878      -26.230198       -4.557445
 H          -8.988391      -25.976549       -5.527108
 C          -9.352645      -26.366982       -4.542088
 C          -9.072493      -27.892115       -4.375842
 C          -8.763598      -25.603495       -3.352865
 C          -7.534947      -28.153316       -4.311380
 C          -7.331795      -25.925512       -3.130404
 C          -6.844100      -27.380047       -3.183766
 H          -9.584352      -28.338919       -5.172458
 H          -9.497416      -28.349808       -3.435765
 H          -8.749829      -24.537100       -3.540895
 H          -9.335764      -25.834827       -2.428773
 H          -7.065631      -27.974625       -5.246244
 H          -7.397418      -29.196997       -4.203473
 H          -7.026865      -25.596725       -2.111654
 H          -6.663960      -25.289474       -3.713572
 H          -5.760065      -27.441267       -3.307529
 H          -6.972988      -27.843384       -2.152962
