20
 generated by VMD
 C         -10.972544      -33.694645       -8.552055
 N         -10.976737      -32.942146       -9.397420
 H         -11.735283      -36.885590       -8.151630
 H         -12.113543      -36.092850       -6.603181
 C         -12.350631      -36.965698       -7.237124
 C         -11.945269      -38.197891       -6.453357
 C         -13.868777      -36.968796       -7.571165
 C         -12.880919      -38.543343       -5.285206
 C         -14.718550      -37.169956       -6.359101
 C         -14.344131      -38.472118       -5.667611
 H         -10.924580      -38.105816       -6.088336
 H         -12.097638      -39.078693       -7.101956
 H         -14.082251      -36.004410       -8.039387
 H         -13.974689      -37.772602       -8.274486
 H         -12.672463      -37.745235       -4.569759
 H         -12.698367      -39.561352       -4.846181
 H         -15.838999      -37.099400       -6.502287
 H         -14.500931      -36.388054       -5.638984
 H         -14.968230      -38.589375       -4.785874
 H         -14.653481      -39.299442       -6.375663
