20
 generated by VMD
 C         -35.427395      -97.457367      -25.560381
 N         -34.918480      -97.758331      -26.554087
 H         -35.638588      -94.592339      -27.704000
 H         -35.958130      -97.133080      -24.746058
 C         -35.357109      -94.424957      -28.743963
 C         -35.944302      -95.287659      -29.794106
 C         -33.940273      -93.970573      -29.006353
 C         -35.725628      -94.917824      -31.271687
 C         -33.735554      -93.345711      -30.410301
 C         -34.257439      -94.382912      -31.499311
 H         -36.978287      -95.410355      -29.567692
 H         -35.465622      -96.312363      -29.646242
 H         -33.644489      -93.192703      -28.319115
 H         -33.229458      -94.777626      -28.826483
 H         -36.382034      -94.046768      -31.401957
 H         -36.067532      -95.695107      -32.073318
 H         -32.678688      -93.093048      -30.473263
 H         -34.304829      -92.380249      -30.671530
 H         -34.265381      -93.772041      -32.443264
 H         -33.644768      -95.175194      -31.461269
