20
 generated by VMD
 C         -53.251873     -147.512665      -45.586357
 N         -54.356750     -147.519455      -45.185509
 H         -54.668411     -147.627762      -48.154625
 H         -52.177670     -147.351791      -45.836029
 C         -54.321533     -146.690109      -48.517769
 C         -53.259731     -146.486008      -49.593800
 C         -55.157063     -145.558884      -48.006130
 C         -53.379726     -145.345367      -50.635170
 C         -55.239513     -144.323669      -49.001598
 C         -53.749626     -144.103668      -49.654469
 H         -53.206627     -147.410416      -50.170067
 H         -52.327377     -146.355118      -49.008476
 H         -56.132359     -145.952072      -47.668755
 H         -54.666519     -145.067810      -47.130619
 H         -54.220882     -145.467026      -51.259064
 H         -52.523727     -145.305206      -51.346222
 H         -55.467701     -143.511642      -48.440559
 H         -56.050373     -144.296402      -49.801277
 H         -53.992199     -143.216507      -50.303051
 H         -52.966175     -143.969147      -48.891117
