20
 generated by VMD
 C          -1.572520      -16.899536        2.121762
 N          -1.558687      -17.450630        3.096252
 H          -5.355889      -16.897211        0.844921
 H          -4.809844      -17.893406       -0.520775
 C          -5.704902      -17.502153        0.036852
 C          -6.456380      -16.561708       -1.021131
 C          -6.697327      -18.451092        0.653057
 C          -7.066990      -17.506226       -2.052426
 C          -7.539317      -19.293339       -0.302234
 C          -8.024444      -18.526417       -1.480246
 H          -5.745786      -15.826815       -1.514021
 H          -7.143312      -15.959057       -0.477127
 H          -6.229641      -19.097229        1.302201
 H          -7.323887      -17.929502        1.323157
 H          -6.227604      -18.097530       -2.534321
 H          -7.588577      -16.965452       -2.837777
 H          -8.399947      -19.761604        0.244324
 H          -6.915407      -20.120522       -0.640312
 H          -8.446383      -19.149588       -2.262912
 H          -8.794960      -17.840010       -1.061508
