20
 generated by VMD
 C         -11.755409      -41.402409       -6.528720
 N         -11.082453      -42.296749       -6.418045
 H         -14.703654      -42.158142       -8.205005
 H         -15.130975      -41.195530       -9.416643
 C         -15.297224      -42.227959       -9.169321
 C         -16.768692      -42.376713       -8.862371
 C         -14.721992      -43.179482      -10.238853
 C         -17.585148      -42.508316      -10.105946
 C         -15.592777      -43.173775      -11.465009
 C         -17.006191      -43.563641      -11.046592
 H         -17.087669      -41.455894       -8.390145
 H         -16.880184      -43.286606       -8.223982
 H         -13.704093      -42.845234      -10.519706
 H         -14.733028      -44.219566       -9.789968
 H         -17.525047      -41.501572      -10.551310
 H         -18.614717      -42.818573       -9.896437
 H         -15.167612      -43.761051      -12.278352
 H         -15.616207      -42.152054      -11.920712
 H         -17.580034      -43.750488      -11.953027
 H         -17.067465      -44.559246      -10.519798
