20
 generated by VMD
 C         -66.980019     -191.344254      -66.216934
 N         -67.530968     -190.757355      -67.031090
 H         -70.400688     -190.169266      -66.516792
 H         -66.320290     -192.043228      -65.633972
 C         -71.122009     -190.181793      -65.674065
 C         -72.076675     -191.263809      -65.544304
 C         -70.839584     -189.245331      -64.581963
 C         -73.371155     -190.770432      -64.728012
 C         -71.944229     -188.941879      -63.511951
 C         -72.943718     -190.127121      -63.426960
 H         -71.587799     -192.060333      -65.145836
 H         -72.412613     -191.522964      -66.564445
 H         -69.973824     -189.554794      -64.065765
 H         -70.436241     -188.268143      -64.946480
 H         -74.060455     -191.601700      -64.538834
 H         -74.070602     -190.100174      -65.339302
 H         -72.391739     -188.034912      -63.914356
 H         -71.471146     -188.646698      -62.629814
 H         -72.410851     -190.826324      -62.879833
 H         -73.937485     -189.965927      -62.821053
