20
 generated by VMD
 C         -22.199873      -53.019886      -12.497753
 N         -22.937784      -52.495899      -13.161801
 H         -20.254810      -53.973103      -14.504958
 H         -21.407583      -53.531960      -11.988862
 C         -19.309738      -53.941307      -13.921616
 C         -18.940996      -52.490452      -13.576704
 C         -18.560324      -55.049061      -13.393441
 C         -17.548122      -52.345104      -14.096014
 C         -17.244879      -54.581364      -12.787986
 C         -16.500067      -53.357956      -13.450015
 H         -18.905857      -52.319454      -12.485366
 H         -19.669540      -51.781532      -14.125212
 H         -19.322023      -55.448277      -12.667627
 H         -18.350960      -55.821163      -14.129224
 H         -17.174189      -51.319660      -13.964553
 H         -17.545765      -52.478325      -15.208240
 H         -16.502102      -55.468239      -12.740792
 H         -17.405220      -54.329670      -11.762218
 H         -15.987210      -52.815754      -12.639468
 H         -15.780741      -53.585426      -14.208451
