20
 generated by VMD
 C         -38.888584     -109.840836      -35.889656
 N         -37.952583     -109.163933      -36.092632
 H         -42.178085     -110.466667      -37.128059
 H         -39.812210     -110.359489      -35.790161
 C         -41.928230     -110.876717      -36.124062
 C         -41.753571     -112.463493      -36.255016
 C         -42.368107     -110.267052      -34.868286
 C         -41.094769     -113.007965      -34.840313
 C         -41.580082     -110.866241      -33.629833
 C         -41.790039     -112.388481      -33.684116
 H         -41.113243     -112.793243      -37.097488
 H         -42.752335     -112.890060      -36.441204
 H         -42.075962     -109.243279      -34.845905
 H         -43.407681     -110.349998      -34.664650
 H         -40.092026     -112.697983      -34.881783
 H         -40.966892     -114.119194      -34.706978
 H         -41.822586     -110.357162      -32.651905
 H         -40.481575     -110.589676      -33.845440
 H         -41.237598     -112.705070      -32.701820
 H         -42.803089     -112.569633      -33.706261
