20
 generated by VMD
 C         -69.926643     -184.437393      -66.178673
 N         -69.001297     -184.214783      -66.875183
 H         -69.632599     -183.505295      -63.361134
 H         -70.779808     -184.609070      -65.607941
 C         -68.958145     -183.666412      -62.500965
 C         -69.237244     -184.702164      -61.448978
 C         -68.105240     -182.464752      -62.160099
 C         -68.122772     -184.920914      -60.449375
 C         -66.835533     -182.865295      -61.498814
 C         -67.335808     -183.614212      -60.194920
 H         -69.470100     -185.625595      -62.077679
 H         -70.157646     -184.392181      -60.940189
 H         -67.982628     -181.950287      -63.032719
 H         -68.656258     -181.837936      -61.427677
 H         -67.328293     -185.560150      -61.046848
 H         -68.504478     -185.543274      -59.614239
 H         -66.162735     -182.044617      -61.249599
 H         -66.238655     -183.578583      -62.056705
 H         -66.479156     -183.964874      -59.712021
 H         -67.787750     -182.942291      -59.497608
