20
 generated by VMD
 C         -79.514305     -206.085342      -73.242348
 N         -79.349731     -206.670013      -74.231262
 H         -78.240181     -205.327316      -69.648018
 H         -79.963478     -205.480667      -72.400604
 C         -77.458992     -205.862091      -70.192764
 C         -76.602974     -205.195511      -71.170303
 C         -76.997414     -207.177994      -69.814301
 C         -75.141159     -205.060699      -70.754173
 C         -75.658524     -207.268173      -69.252235
 C         -74.583153     -206.456665      -70.080986
 H         -76.898552     -204.199478      -71.540359
 H         -76.687485     -205.920303      -72.098175
 H         -77.818565     -207.494400      -69.145294
 H         -77.109901     -207.841660      -70.658493
 H         -75.009048     -204.290985      -69.940536
 H         -74.471268     -204.807709      -71.604279
 H         -75.380981     -208.282104      -69.030251
 H         -75.474510     -206.772186      -68.230949
 H         -73.701355     -206.197952      -69.457825
 H         -74.206207     -207.030273      -70.941353
