20
 generated by VMD
 C         -22.366604      -68.084953      -16.512018
 N         -21.645353      -68.128662      -15.594314
 H         -24.052862      -65.548157      -18.363012
 H         -23.034235      -68.082672      -17.347282
 C         -24.663387      -66.409935      -18.779848
 C         -24.020323      -67.111023      -20.006294
 C         -26.126854      -66.509392      -18.879255
 C         -24.459450      -68.481705      -20.418161
 C         -26.601700      -67.953835      -19.034590
 C         -25.954870      -68.531227      -20.383263
 H         -22.843157      -67.154404      -19.925339
 H         -24.190140      -66.390305      -20.812077
 H         -26.693604      -65.949089      -18.176157
 H         -26.426626      -65.987419      -19.786894
 H         -24.076643      -69.264221      -19.672636
 H         -24.027546      -68.705559      -21.436476
 H         -27.760582      -67.990326      -18.978382
 H         -26.148434      -68.593620      -18.212517
 H         -26.205629      -69.563660      -20.640282
 H         -26.340366      -67.913399      -21.165407
