20
 generated by VMD
 C          -2.566274       -8.699426       -0.408094
 N          -1.445867       -8.507028       -0.259140
 H          -3.155421       -9.755393        2.808878
 H          -1.913620      -10.746459        3.355839
 C          -2.991296      -10.715002        3.164003
 C          -3.257388      -11.676487        2.046845
 C          -3.761216      -10.960452        4.496704
 C          -3.296456      -13.098072        2.523667
 C          -3.698808      -12.424206        4.879683
 C          -4.236301      -13.286067        3.749232
 H          -2.472262      -11.596043        1.290105
 H          -4.178881      -11.474664        1.526364
 H          -3.411510      -10.230651        5.268156
 H          -4.762791      -10.781685        4.183335
 H          -2.351870      -13.518023        2.844199
 H          -3.682947      -13.774745        1.790761
 H          -4.443169      -12.567827        5.720088
 H          -2.679003      -12.733768        5.246305
 H          -4.158071      -14.367453        4.042920
 H          -5.287804      -12.996887        3.588117
