20
 generated by VMD
 C         -65.976151     -177.779724      -56.893761
 N         -66.651001     -176.894913      -57.191334
 H         -64.612617     -175.741898      -58.786388
 H         -65.324722     -178.615768      -56.754204
 C         -64.424408     -174.713745      -59.184280
 C         -65.652328     -173.834366      -59.042950
 C         -63.457851     -174.494263      -60.308281
 C         -65.218300     -172.484741      -59.009975
 C         -63.046455     -172.966827      -60.390923
 C         -64.420792     -172.040100      -60.176243
 H         -66.291710     -174.028458      -58.092438
 H         -66.199387     -174.020966      -59.917778
 H         -62.482685     -175.019516      -60.176006
 H         -64.029854     -174.672775      -61.208969
 H         -64.525459     -172.411484      -58.077515
 H         -66.118263     -171.810059      -58.863956
 H         -62.590054     -172.823959      -61.359959
 H         -62.354519     -172.602081      -59.583374
 H         -64.070595     -171.036316      -60.085194
 H         -64.969818     -172.179749      -61.151531
