20
 generated by VMD
 C         -11.874963      -25.697868       -0.842360
 N         -12.287786      -25.407017        0.141063
 H          -8.091107      -26.544556       -1.529509
 H          -9.223404      -25.897724       -2.799882
 C          -8.144930      -26.009075       -2.468036
 C          -7.498899      -26.731644       -3.578950
 C          -7.642971      -24.553925       -2.229764
 C          -7.158774      -25.960369       -4.786366
 C          -7.389536      -23.831470       -3.499733
 C          -6.542791      -24.572607       -4.507133
 H          -7.922231      -27.715092       -3.845054
 H          -6.478988      -27.114553       -3.177451
 H          -8.343544      -24.047384       -1.487651
 H          -6.730949      -24.640699       -1.670183
 H          -8.086286      -25.786789       -5.410757
 H          -6.588279      -26.651407       -5.439884
 H          -6.926843      -22.860401       -3.303163
 H          -8.389969      -23.708078       -3.970036
 H          -6.448258      -24.051327       -5.478657
 H          -5.592247      -24.624548       -4.045721
