20
 generated by VMD
 C         -29.082197      -73.754486      -19.414547
 N         -29.960478      -74.522476      -19.428904
 H         -25.173178      -73.202187      -18.769981
 H         -28.371286      -72.841263      -19.712152
 C         -25.517698      -73.099167      -19.824974
 C         -25.251726      -74.322578      -20.722935
 C         -25.767670      -71.769402      -20.438005
 C         -25.803143      -74.190315      -22.187649
 C         -26.206676      -71.802116      -21.823757
 C         -25.532854      -72.754799      -22.770531
 H         -25.776665      -75.144264      -20.311794
 H         -24.228888      -74.480217      -20.784094
 H         -26.574541      -71.196350      -20.058596
 H         -24.857073      -71.147675      -20.268370
 H         -26.863646      -74.483955      -22.183224
 H         -25.295349      -74.874741      -22.920752
 H         -26.008018      -70.756058      -22.278450
 H         -27.396341      -71.940086      -21.970146
 H         -26.109203      -72.697212      -23.668682
 H         -24.493654      -72.539513      -22.941872
