20
 generated by VMD
 C         -10.409219      -33.249454       -9.474884
 N         -11.007135      -32.522259       -8.884908
 H         -11.965480      -36.290081       -7.965412
 H         -12.391738      -35.735695       -6.343031
 C         -12.512809      -36.589394       -7.044632
 C         -11.875468      -37.795334       -6.408962
 C         -13.982280      -36.861172       -7.405654
 C         -12.586075      -38.336124       -5.189740
 C         -14.769003      -37.163670       -6.108123
 C         -14.097518      -38.319702       -5.355997
 H         -10.814010      -37.741112       -6.209879
 H         -11.973004      -38.623844       -7.130506
 H         -14.397997      -36.025681       -7.920446
 H         -13.986835      -37.764332       -8.073680
 H         -12.175783      -37.729717       -4.407565
 H         -12.194695      -39.369953       -4.899786
 H         -15.789527      -37.379341       -6.337636
 H         -14.681886      -36.274075       -5.446010
 H         -14.641859      -38.407177       -4.420522
 H         -14.306330      -39.228111       -5.965601
