20
 generated by VMD
 C         -66.700050     -177.909286      -56.944790
 N         -67.789894     -178.275269      -56.894417
 H         -64.361740     -176.271362      -59.740631
 H         -65.708138     -177.556854      -57.126770
 C         -64.261803     -175.168182      -59.636555
 C         -65.472107     -174.276199      -59.394367
 C         -63.165356     -174.500565      -60.371567
 C         -65.187019     -172.726181      -59.174911
 C         -63.047218     -172.986511      -60.327511
 C         -64.384430     -172.303818      -60.469479
 H         -66.057449     -174.674057      -58.652275
 H         -66.161079     -174.377991      -60.313736
 H         -62.291847     -174.978806      -60.048973
 H         -63.279392     -174.911942      -61.351078
 H         -64.455803     -172.709991      -58.360462
 H         -66.034096     -172.053604      -59.039337
 H         -62.529579     -172.513535      -61.250668
 H         -62.434978     -172.726456      -59.504436
 H         -64.153328     -171.195847      -60.516773
 H         -64.873154     -172.555710      -61.477337
