20
 generated by VMD
 C         -11.983978      -37.457619       -7.400253
 N         -11.074895      -37.849762       -7.857483
 H         -12.446945      -40.987919       -8.423844
 H         -13.425364      -40.335438       -7.200881
 C         -13.445076      -40.788631       -8.149014
 C         -14.215192      -42.141796       -8.070125
 C         -14.098000      -39.869392       -9.289968
 C         -15.728708      -41.981098       -7.825163
 C         -15.611370      -39.688862       -9.135078
 C         -16.370590      -41.039669       -8.913492
 H         -13.713232      -42.723862       -7.271883
 H         -14.158574      -42.570808       -9.078191
 H         -13.569202      -38.876423       -9.298538
 H         -13.862609      -40.461288      -10.192579
 H         -15.833441      -41.543545       -6.787080
 H         -16.202362      -42.953377       -7.957010
 H         -16.093588      -39.194946      -10.051209
 H         -15.811777      -39.050766       -8.310889
 H         -17.375574      -40.724339       -8.594283
 H         -16.490122      -41.554752       -9.850924
