20
 generated by VMD
 C         -61.498131     -154.645096      -53.904362
 N         -61.992500     -155.355682      -53.160980
 H         -58.047661     -154.656403      -52.429749
 H         -61.118309     -153.939209      -54.644634
 C         -57.205204     -154.565826      -51.758778
 C         -57.392609     -154.294632      -50.280933
 C         -55.838352     -154.484665      -52.404884
 C         -56.051971     -154.706955      -49.517155
 C         -54.631580     -154.886444      -51.614841
 C         -54.793388     -154.236526      -50.213951
 H         -58.317627     -154.806717      -49.781639
 H         -57.579144     -153.201904      -50.064972
 H         -55.829285     -155.098862      -53.284500
 H         -55.863178     -153.401611      -52.699261
 H         -55.771648     -155.778366      -49.461605
 H         -56.011333     -154.227707      -48.482010
 H         -53.773758     -154.408966      -52.117485
 H         -54.458332     -156.002731      -51.443890
 H         -53.808727     -154.321732      -49.619610
 H         -54.874676     -153.190903      -50.190437
