20
 generated by VMD
 C         -64.421600     -175.188202      -55.934727
 N         -63.583565     -175.516205      -56.678295
 H         -65.320061     -173.912186      -58.198086
 H         -65.267159     -174.984436      -55.281761
 C         -65.008362     -173.109329      -58.781410
 C         -65.490189     -171.815445      -58.288658
 C         -64.226433     -173.289169      -59.944145
 C         -64.441246     -170.767181      -58.177494
 C         -63.151356     -172.233795      -60.067604
 C         -63.684654     -170.740555      -59.632187
 H         -65.942734     -172.019714      -57.354568
 H         -66.351616     -171.386673      -58.967342
 H         -63.851036     -174.370651      -59.978603
 H         -64.909309     -173.371872      -60.802139
 H         -63.737190     -171.156952      -57.522289
 H         -64.774033     -169.838699      -57.835709
 H         -62.806419     -172.115356      -61.079144
 H         -62.317261     -172.529999      -59.350815
 H         -62.925297     -169.981796      -59.654716
 H         -64.481148     -170.584457      -60.398464
