20
 generated by VMD
 C         -12.040900      -25.467545       -0.386722
 N         -12.970306      -26.001928       -0.036579
 H          -9.129807      -26.811743       -2.314072
 H          -9.433574      -25.940172       -3.867924
 C          -8.627332      -26.272606       -3.128205
 C          -7.636533      -27.109198       -3.901088
 C          -7.973110      -25.020872       -2.520885
 C          -6.852413      -26.290222       -4.856682
 C          -7.209052      -24.139996       -3.521333
 C          -6.223618      -24.995464       -4.307874
 H          -8.080453      -27.948038       -4.437144
 H          -7.005082      -27.689043       -3.119758
 H          -8.741773      -24.406822       -1.979355
 H          -7.266654      -25.284657       -1.762730
 H          -7.427073      -26.014570       -5.787782
 H          -6.059638      -26.959660       -5.269727
 H          -6.754994      -23.271959       -3.050299
 H          -7.954958      -23.786940       -4.235634
 H          -5.792828      -24.399290       -5.112391
 H          -5.378428      -25.159264       -3.657478
