20
 generated by VMD
 C         -48.300430     -135.483688      -46.148285
 N         -47.353111     -135.196518      -46.671017
 H         -51.348660     -134.726990      -45.521111
 H         -49.255074     -135.782349      -45.704754
 C         -51.500607     -135.638626      -45.015862
 C         -52.137295     -136.924789      -45.455975
 C         -51.298405     -135.442474      -43.477650
 C         -51.414024     -138.129547      -44.913570
 C         -50.540981     -136.678146      -42.902420
 C         -51.358784     -137.979019      -43.323097
 H         -51.927013     -136.933105      -46.572823
 H         -53.221760     -136.956894      -45.320942
 H         -50.825069     -134.476868      -43.319286
 H         -52.395706     -135.237091      -43.184803
 H         -50.383102     -138.268051      -45.257896
 H         -51.956150     -139.003601      -45.164314
 H         -50.521629     -136.629807      -41.827354
 H         -49.577164     -136.799667      -43.360134
 H         -50.735947     -138.840103      -42.944660
 H         -52.260174     -137.883850      -42.956631
