20
 generated by VMD
 C         -10.637294      -36.298790       -7.585526
 N          -9.823607      -37.004753       -7.757548
 H         -13.144531      -38.483765       -7.932674
 H         -14.423731      -38.813492       -6.845470
 C         -14.015147      -39.176273       -7.799178
 C         -13.611756      -40.651295       -7.701228
 C         -15.108171      -38.927368       -8.849129
 C         -14.810383      -41.623417       -7.533176
 C         -16.290539      -39.913067       -8.733867
 C         -15.887528      -41.379887       -8.600560
 H         -13.044295      -40.847950       -6.819780
 H         -13.120631      -40.946796       -8.626948
 H         -15.457444      -37.933392       -8.684673
 H         -14.703143      -39.038540       -9.875429
 H         -15.308651      -41.443825       -6.592631
 H         -14.363459      -42.644634       -7.494389
 H         -16.918146      -39.705441       -9.538660
 H         -16.789381      -39.553734       -7.776886
 H         -16.701097      -42.008377       -8.367523
 H         -15.489374      -41.695343       -9.556337
