20
 generated by VMD
 C         -31.855207      -76.062157      -24.225677
 N         -31.294535      -76.439987      -25.141403
 H         -29.683298      -77.802917      -22.421806
 H         -32.226280      -75.653206      -23.329170
 C         -28.634562      -77.884178      -22.178587
 C         -27.615120      -78.183731      -23.331226
 C         -28.314053      -78.363129      -20.791668
 C         -26.216930      -77.916786      -22.878942
 C         -26.857716      -78.019310      -20.357908
 C         -25.796095      -78.417999      -21.460609
 H         -27.770632      -77.467773      -24.120310
 H         -27.739979      -79.225113      -23.640417
 H         -28.941406      -78.020470      -19.906288
 H         -28.470999      -79.423958      -20.776093
 H         -26.093990      -76.828766      -22.963720
 H         -25.522825      -78.481903      -23.554499
 H         -26.575382      -78.534256      -19.381872
 H         -26.923563      -76.844887      -20.044485
 H         -24.925367      -77.787231      -21.139778
 H         -25.392792      -79.416672      -21.384150
