20
 generated by VMD
 C         -60.415413     -172.144180      -55.288692
 N         -59.967278     -173.077545      -54.856712
 H         -62.586826     -170.576401      -56.865993
 H         -61.018177     -171.330231      -55.564342
 C         -63.254055     -169.713135      -57.143307
 C         -62.778458     -168.331268      -57.427250
 C         -64.776230     -169.753845      -57.191025
 C         -63.224945     -167.804733      -58.748260
 C         -65.319405     -169.275879      -58.500477
 C         -64.772141     -167.940216      -58.977097
 H         -61.703430     -168.429626      -57.440239
 H         -63.087139     -167.711929      -56.474602
 H         -64.992485     -170.798843      -57.005421
 H         -65.048592     -169.157639      -56.290485
 H         -62.723362     -168.357056      -59.573818
 H         -62.883430     -166.756210      -58.813766
 H         -66.391266     -169.174408      -58.391163
 H         -64.998276     -169.944580      -59.263039
 H         -64.988770     -167.826355      -60.024452
 H         -65.069221     -166.974625      -58.562786
