20
 generated by VMD
 C         -19.561550      -57.800285      -17.016987
 N         -19.256084      -58.382481      -18.002672
 H         -22.068192      -60.308243      -17.173145
 H         -20.135382      -57.283802      -16.183832
 C         -22.711149      -60.507355      -16.391928
 C         -23.905062      -61.422539      -16.692701
 C         -21.997797      -60.917114      -15.094811
 C         -23.678883      -62.964706      -16.474192
 C         -21.660931      -62.419449      -15.054854
 C         -22.908474      -63.259560      -15.149569
 H         -24.143902      -61.255295      -17.772341
 H         -24.950663      -61.120766      -16.192972
 H         -21.053455      -60.312073      -15.156938
 H         -22.670063      -60.639820      -14.270499
 H         -23.261879      -63.395916      -17.373663
 H         -24.632534      -63.525124      -16.458225
 H         -21.253733      -62.711285      -14.058375
 H         -21.050453      -62.647415      -15.932981
 H         -22.757208      -64.294090      -14.948378
 H         -23.555061      -62.886395      -14.368855
