20
 generated by VMD
 C         -60.671387     -156.231552      -54.680519
 N         -60.199314     -155.488571      -55.374149
 H         -59.766735     -156.998962      -51.542648
 H         -61.107334     -157.070084      -54.140526
 C         -58.758015     -156.920837      -51.986755
 C         -58.087521     -155.572937      -51.980461
 C         -57.876129     -158.202316      -52.102638
 C         -57.013672     -155.644699      -50.942722
 C         -56.804684     -158.236145      -50.973347
 C         -55.987705     -156.908936      -50.989532
 H         -58.828396     -154.782242      -51.922630
 H         -57.671005     -155.526596      -52.992867
 H         -58.584518     -159.065262      -51.990738
 H         -57.328999     -158.207703      -53.112591
 H         -57.458942     -155.506271      -49.964539
 H         -56.431892     -154.671021      -50.915718
 H         -56.048130     -159.034088      -51.076675
 H         -57.245506     -158.438095      -49.921913
 H         -55.240902     -156.833984      -50.232929
 H         -55.510529     -156.905441      -52.027645
