20
 generated by VMD
 C         -80.666290     -205.692505      -72.011795
 N         -79.931679     -206.616714      -71.997681
 H         -76.971153     -204.296478      -71.863831
 H         -81.292633     -204.871368      -72.210289
 C         -76.058121     -204.659821      -71.456558
 C         -75.061218     -203.633804      -71.134651
 C         -76.239204     -205.917419      -70.693642
 C         -74.321030     -203.782700      -69.722885
 C         -75.590233     -205.787262      -69.245026
 C         -74.167038     -205.157349      -69.249542
 H         -75.553116     -202.624481      -71.133163
 H         -74.339409     -203.570770      -71.920929
 H         -77.352066     -206.291122      -70.678238
 H         -75.667664     -206.777374      -71.135979
 H         -74.820450     -203.148834      -68.954132
 H         -73.368980     -203.464279      -69.990349
 H         -75.469345     -206.890671      -68.801727
 H         -76.273315     -205.263153      -68.564156
 H         -73.771790     -205.080215      -68.206528
 H         -73.575294     -205.818985      -69.810989
