20
 generated by VMD
 C         -41.073414     -103.064301      -35.663174
 N         -41.265278     -104.180626      -35.460602
 H         -39.422394     -104.328033      -33.433846
 H         -41.280327     -102.018074      -35.878670
 C         -38.673691     -105.049225      -32.949608
 C         -37.226635     -104.752235      -32.893806
 C         -39.067551     -106.435669      -32.718105
 C         -36.627411     -105.269569      -31.647865
 C         -38.844711     -106.836960      -31.318686
 C         -37.237293     -106.667488      -31.158041
 H         -37.038101     -103.724297      -33.007732
 H         -36.681458     -105.296158      -33.627254
 H         -40.216404     -106.574181      -32.904915
 H         -38.589779     -107.074089      -33.404301
 H         -36.978924     -104.481384      -30.989708
 H         -35.534748     -105.279556      -31.444384
 H         -39.074623     -107.892174      -31.197121
 H         -39.426361     -106.287331      -30.600857
 H         -36.860992     -106.767540      -30.186140
 H         -36.804913     -107.543808      -31.768837
