20
 generated by VMD
 C          -5.755165      -21.291626        1.784881
 N          -6.394120      -22.107794        1.362978
 H          -5.066171      -18.945089       -1.031064
 H          -6.210997      -19.935825        0.109874
 C          -5.920370      -19.690834       -0.958265
 C          -5.572584      -20.911982       -1.761721
 C          -7.166637      -18.987944       -1.381912
 C          -6.764421      -21.782806       -2.141466
 C          -8.351434      -19.879169       -1.766238
 C          -7.904297      -20.990767       -2.737840
 H          -4.831964      -21.509602       -1.277872
 H          -5.067010      -20.546841       -2.697448
 H          -7.449658      -18.237627       -0.683710
 H          -7.050502      -18.245152       -2.141291
 H          -7.125486      -22.281435       -1.247791
 H          -6.458291      -22.609459       -2.788895
 H          -9.157207      -19.259567       -2.168379
 H          -8.786498      -20.361689       -0.895239
 H          -8.732568      -21.661213       -2.928086
 H          -7.699807      -20.595320       -3.710907
