20
 generated by VMD
 C         -39.858440     -116.753052      -34.727848
 N         -39.408585     -115.706909      -34.483051
 H         -41.459995     -116.581902      -37.772785
 H         -40.170372     -117.762054      -34.892178
 C         -42.437401     -115.965668      -37.829861
 C         -43.182732     -115.701004      -39.060108
 C         -43.246109     -115.891068      -36.588783
 C         -44.442017     -116.631317      -39.112152
 C         -44.620415     -116.591171      -36.682137
 C         -45.344715     -116.306396      -37.983162
 H         -42.563557     -116.095345      -39.848152
 H         -43.360016     -114.642494      -39.184204
 H         -42.685707     -116.365601      -35.735519
 H         -43.443691     -114.827942      -36.453148
 H         -44.207401     -117.708984      -39.072403
 H         -44.956093     -116.469589      -40.135986
 H         -45.295040     -116.349083      -35.911869
 H         -44.447655     -117.641159      -36.665230
 H         -46.465828     -116.838356      -37.923309
 H         -45.644001     -115.181847      -37.910789
