20
 generated by VMD
 C         -30.959509      -77.720383      -25.534781
 N         -31.664982      -77.886284      -26.480375
 H         -29.196373      -78.392319      -22.744917
 H         -30.651644      -77.461227      -24.501129
 C         -28.966705      -79.321312      -23.266670
 C         -27.459314      -79.494942      -23.396616
 C         -29.783764      -80.562599      -22.830963
 C         -26.895638      -80.047104      -22.083553
 C         -29.148729      -80.956398      -21.428331
 C         -27.639391      -81.153610      -21.455992
 H         -27.008823      -78.559677      -23.701765
 H         -27.407082      -80.393150      -24.017355
 H         -30.832092      -80.368690      -22.798998
 H         -29.571747      -81.395233      -23.637457
 H         -26.819490      -79.175804      -21.506832
 H         -25.845747      -80.366730      -22.123581
 H         -29.679459      -81.897072      -21.187433
 H         -29.498680      -80.190704      -20.789257
 H         -27.284782      -81.475349      -20.437353
 H         -27.442423      -82.021698      -22.082010
