20
 generated by VMD
 C         -62.557323     -174.368637      -54.877808
 N         -63.553894     -174.103027      -55.481220
 H         -62.351746     -172.390610      -58.332115
 H         -61.675613     -174.499710      -54.238953
 C         -63.233692     -171.724319      -58.456455
 C         -63.510384     -170.649124      -57.414452
 C         -64.232292     -172.097870      -59.572842
 C         -63.689674     -169.362427      -58.278442
 C         -64.593918     -170.729202      -60.232159
 C         -64.768921     -169.609146      -59.347694
 H         -62.646950     -170.473480      -56.678337
 H         -64.401405     -170.836761      -56.790894
 H         -63.773041     -172.739700      -60.378975
 H         -65.156006     -172.338623      -59.111435
 H         -62.734737     -169.002304      -58.658012
 H         -63.994621     -168.526672      -57.732121
 H         -65.538246     -170.898026      -60.790340
 H         -63.854446     -170.597473      -61.093113
 H         -64.897354     -168.644653      -59.924271
 H         -65.751984     -169.769897      -58.862034
