20
 generated by VMD
 C         -59.930252     -152.972794      -51.120365
 N         -60.686104     -152.321503      -51.726845
 H         -56.955788     -153.422455      -49.318321
 H         -59.218586     -153.584671      -50.538437
 C         -56.230862     -152.768723      -49.789356
 C         -54.828609     -153.050201      -49.441647
 C         -56.497330     -151.337494      -50.236336
 C         -53.814838     -152.502396      -50.561764
 C         -55.541977     -150.845306      -51.254871
 C         -54.134308     -151.019073      -50.940750
 H         -54.757954     -154.227386      -49.468231
 H         -54.550198     -152.616913      -48.461777
 H         -57.494728     -151.449814      -50.613209
 H         -56.626835     -150.669693      -49.401821
 H         -53.944313     -153.087555      -51.464306
 H         -52.804161     -152.573120      -50.053028
 H         -55.845943     -149.726562      -51.518856
 H         -55.647774     -151.279221      -52.249184
 H         -53.424324     -150.737289      -51.804737
 H         -53.987579     -150.486038      -50.010021
