20
 generated by VMD
 C         -21.922821      -67.119987      -16.664818
 N         -21.014263      -66.893234      -16.002333
 H         -24.254551      -64.611725      -18.352869
 H         -22.729567      -67.202705      -17.506721
 C         -24.572338      -65.651207      -18.592861
 C         -23.909616      -66.326477      -19.784391
 C         -25.831247      -66.261673      -18.047354
 C         -24.337748      -67.702927      -20.099520
 C         -26.255989      -67.579971      -18.467524
 C         -25.797499      -67.979942      -19.880981
 H         -22.864061      -66.219582      -19.940922
 H         -24.411510      -65.717079      -20.652611
 H         -25.896519      -66.013115      -16.942045
 H         -26.612507      -65.596840      -18.395639
 H         -23.675138      -68.374886      -19.428040
 H         -23.994331      -67.889267      -21.122360
 H         -27.390987      -67.586212      -18.271532
 H         -25.796976      -68.307007      -17.764507
 H         -25.939976      -69.064217      -20.153835
 H         -26.374557      -67.394943      -20.557161
