20
 generated by VMD
 C         -30.119749      -75.995941      -23.152744
 N         -30.877287      -75.574615      -23.914055
 H         -28.888187      -79.025154      -21.394320
 H         -29.489717      -76.377327      -22.447607
 C         -28.346291      -78.114052      -21.615520
 C         -27.639641      -78.077553      -22.943321
 C         -27.697670      -77.620575      -20.384544
 C         -26.694414      -76.875198      -23.176729
 C         -26.851839      -76.264206      -20.694931
 C         -25.933027      -76.400787      -21.934752
 H         -28.329315      -78.373138      -23.828011
 H         -26.877235      -79.011681      -22.975855
 H         -28.504370      -77.360565      -19.635052
 H         -27.037306      -78.433617      -19.971802
 H         -27.386322      -76.136673      -23.612810
 H         -25.969645      -76.957420      -24.015730
 H         -26.234495      -75.887070      -19.850481
 H         -27.534349      -75.473984      -20.828333
 H         -25.434830      -75.426079      -22.226862
 H         -25.240217      -77.135788      -21.660070
