20
 generated by VMD
 C         -12.380635      -27.583246       -4.612851
 N         -13.128598      -28.095390       -5.261663
 H         -10.902499      -30.510773       -2.723721
 H         -10.892834      -29.080744       -3.848535
 C         -10.293096      -29.831087       -3.351374
 C          -9.607630      -30.486084       -4.562270
 C          -9.306496      -29.141232       -2.478468
 C          -8.698219      -29.489267       -5.282284
 C          -8.378337      -28.234585       -3.181986
 C          -7.668252      -28.867996       -4.411297
 H         -10.339845      -30.961550       -5.302319
 H          -8.983231      -31.271408       -4.208935
 H          -9.792276      -28.644091       -1.632939
 H          -8.795186      -29.953789       -1.991155
 H          -9.311971      -28.691843       -5.716657
 H          -8.216435      -30.097332       -6.082097
 H          -7.554643      -27.792234       -2.571684
 H          -8.845767      -27.376472       -3.589461
 H          -7.187816      -28.076981       -4.998482
 H          -6.998899      -29.613258       -3.956957
