20
 generated by VMD
 C         -50.308350     -131.852219      -46.896240
 N         -50.043617     -132.117279      -47.999432
 H         -48.544262     -131.436707      -43.745800
 H         -50.658447     -131.257782      -46.083145
 C         -48.846073     -132.237427      -43.063683
 C         -49.560699     -133.482712      -43.477448
 C         -48.569031     -132.055344      -41.573914
 C         -49.076538     -134.727631      -42.698673
 C         -48.231056     -133.312546      -40.842525
 C         -49.112217     -134.470673      -41.185184
 H         -49.320084     -133.461121      -44.519676
 H         -50.666458     -133.296082      -43.357349
 H         -47.895908     -131.124710      -41.430412
 H         -49.560814     -131.727127      -41.202847
 H         -48.014595     -134.855942      -42.966640
 H         -49.692585     -135.532257      -43.123295
 H         -48.395317     -133.187393      -39.767422
 H         -47.168819     -133.479736      -41.138069
 H         -49.064404     -135.412659      -40.542267
 H         -50.141121     -134.253937      -40.972343
