20
 generated by VMD
 C         -11.240442      -34.031498       -8.256002
 N         -10.866259      -33.802578       -9.256357
 H         -11.650873      -37.807278       -7.940598
 H         -12.388246      -37.148296       -6.553716
 C         -12.523804      -37.932411       -7.286947
 C         -12.487351      -39.286804       -6.585795
 C         -13.766788      -37.843777       -8.082730
 C         -13.721011      -39.600578       -5.827343
 C         -14.998627      -37.897770       -7.220248
 C         -15.033153      -39.255993       -6.465531
 H         -11.618321      -39.438709       -5.913811
 H         -12.281861      -40.033539       -7.391952
 H         -13.727778      -36.888058       -8.653066
 H         -13.779811      -38.550358       -8.909175
 H         -13.697629      -39.196564       -4.822257
 H         -13.720309      -40.684269       -5.551477
 H         -15.876096      -37.842499       -7.865606
 H         -15.056926      -37.085659       -6.507288
 H         -15.844460      -39.279003       -5.760783
 H         -15.216884      -40.073692       -7.189051
