20
 generated by VMD
 C         -50.665871     -128.661057      -42.164444
 N         -51.682198     -128.295135      -41.841133
 H         -47.906868     -127.726387      -40.161495
 H         -49.783749     -129.081375      -42.626366
 C         -47.058521     -127.526398      -40.775402
 C         -45.716473     -128.143433      -40.215195
 C         -46.909901     -126.037987      -41.225334
 C         -44.521725     -127.696587      -40.888107
 C         -45.615520     -125.787399      -41.961346
 C         -44.493793     -126.223007      -41.061562
 H         -45.803101     -129.261520      -40.134312
 H         -45.743328     -127.750542      -39.233410
 H         -47.878586     -125.970825      -41.738190
 H         -47.177151     -125.266296      -40.430927
 H         -44.293903     -128.341690      -41.762108
 H         -43.625374     -128.055008      -40.320831
 H         -45.517658     -124.773415      -42.284981
 H         -45.707111     -126.380280      -42.860058
 H         -43.540470     -125.937073      -41.549763
 H         -44.642277     -125.688248      -40.103958
