20
 generated by VMD
 C          -1.444977      -13.275538        0.749883
 N          -0.490468      -13.631760        0.283649
 H          -4.204093      -13.943678        2.152304
 H          -5.059371      -13.742523        0.635296
 C          -4.920021      -14.465057        1.494324
 C          -6.259550      -14.598994        2.221321
 C          -4.341897      -15.810331        1.038819
 C          -7.252532      -15.516197        1.575920
 C          -5.373178      -16.693525        0.230583
 C          -6.631458      -16.810715        1.125656
 H          -6.643449      -13.541160        2.307164
 H          -6.027424      -14.899271        3.253206
 H          -3.441816      -15.637482        0.491935
 H          -4.173223      -16.360195        1.951441
 H          -7.669802      -15.095372        0.671244
 H          -8.087652      -15.683449        2.257710
 H          -4.903076      -17.659645        0.106318
 H          -5.572834      -16.230682       -0.751129
 H          -7.419241      -17.391788        0.620791
 H          -6.323517      -17.371637        2.049320
