20
 generated by VMD
 C         -49.584885     -133.120285      -47.098194
 N         -49.381660     -131.998215      -47.016548
 H         -47.684486     -134.386154      -43.858677
 H         -50.047466     -134.078552      -47.375751
 C         -48.698353     -134.727432      -43.656315
 C         -49.223034     -136.013062      -44.051945
 C         -49.698139     -133.699493      -43.113735
 C         -50.023697     -136.624878      -42.849472
 C         -50.463001     -134.264359      -42.038460
 C         -51.043873     -135.661972      -42.308197
 H         -48.522972     -136.680283      -44.412846
 H         -49.971874     -135.850586      -44.855698
 H         -49.296253     -132.755585      -42.770931
 H         -50.408184     -133.454483      -43.959133
 H         -49.344051     -137.024155      -42.045231
 H         -50.466454     -137.580338      -43.319229
 H         -51.280865     -133.593613      -41.620323
 H         -49.681183     -134.316391      -41.265697
 H         -51.485054     -135.997467      -41.412003
 H         -51.869026     -135.471558      -43.150394
