20
 generated by VMD
 C          -9.592997      -25.045549        0.659098
 N         -10.603499      -25.494839        0.887799
 H          -6.269449      -23.484825       -0.863306
 H          -7.952639      -22.897129       -1.201914
 C          -6.945442      -23.221514       -1.677086
 C          -7.127011      -24.642033       -2.327731
 C          -6.368599      -22.281818       -2.705194
 C          -8.133589      -24.393890       -3.480336
 C          -7.312790      -22.090481       -3.842797
 C          -7.549819      -23.408413       -4.479824
 H          -7.479690      -25.218763       -1.553228
 H          -6.173869      -25.092072       -2.696549
 H          -6.252450      -21.278273       -2.304133
 H          -5.343730      -22.551924       -2.973262
 H          -9.117591      -24.026655       -3.119256
 H          -8.350372      -25.335436       -3.957329
 H          -6.814763      -21.482788       -4.641333
 H          -8.226099      -21.529604       -3.568640
 H          -8.204247      -23.286694       -5.340154
 H          -6.672905      -23.794947       -4.963722
