20
 generated by VMD
 C         -68.923279     -192.882034      -66.328400
 N         -68.099678     -193.413956      -67.011169
 H         -69.998032     -189.983826      -65.581795
 H         -69.631790     -192.522156      -65.623924
 C         -70.866943     -190.555511      -65.309547
 C         -71.785034     -190.804520      -66.491066
 C         -71.506996     -190.725998      -63.919044
 C         -72.631401     -191.998550      -66.250443
 C         -73.042740     -190.677261      -63.983528
 C         -73.630836     -191.609467      -65.124214
 H         -71.201553     -191.072403      -67.385223
 H         -72.403809     -189.913757      -66.688171
 H         -71.266861     -191.717636      -63.555679
 H         -71.158012     -189.987167      -63.133743
 H         -71.960297     -192.804398      -65.935120
 H         -73.278160     -192.288788      -67.105392
 H         -73.245689     -189.609528      -64.311424
 H         -73.626091     -190.878433      -63.076839
 H         -73.873650     -192.516785      -64.564484
 H         -74.525505     -191.302795      -65.568619
