20
 generated by VMD
 C         -49.859074     -142.326141      -45.177662
 N         -48.961357     -143.061600      -45.336090
 H         -51.858154     -139.318329      -45.927654
 H         -50.740974     -141.736588      -45.075939
 C         -52.461609     -139.997910      -46.457760
 C         -52.420441     -140.243744      -47.819706
 C         -53.793823     -140.398010      -45.700733
 C         -52.843277     -141.576614      -48.274162
 C         -54.232094     -141.730072      -46.130348
 C         -54.233887     -141.889374      -47.687283
 H         -51.366356     -140.079269      -48.117371
 H         -52.872826     -139.587234      -48.510815
 H         -53.575382     -140.425186      -44.624855
 H         -54.372261     -139.583832      -46.022923
 H         -52.127945     -142.364212      -48.068863
 H         -52.744148     -141.651382      -49.335663
 H         -55.333687     -141.944061      -45.906532
 H         -53.606419     -142.496460      -45.572800
 H         -54.556343     -142.895630      -47.971272
 H         -55.072540     -141.378815      -48.156860
