20
 generated by VMD
 C         -47.735973     -125.341362      -39.096436
 N         -47.741814     -126.331795      -38.516273
 H         -45.793758     -123.217697      -37.882385
 H         -47.637127     -124.266159      -39.355167
 C         -45.319263     -123.004128      -38.868233
 C         -44.461395     -124.210846      -39.394257
 C         -45.679577     -121.910484      -39.777168
 C         -44.608269     -124.484993      -40.828522
 C         -45.744884     -122.270966      -41.248573
 C         -44.706543     -123.191597      -41.724888
 H         -44.589096     -125.094597      -38.799721
 H         -43.388908     -123.971519      -39.327221
 H         -46.682358     -121.533455      -39.385326
 H         -44.938316     -121.180832      -39.672157
 H         -45.673462     -124.878677      -40.873917
 H         -43.901680     -125.169815      -41.315884
 H         -45.679153     -121.314415      -41.941013
 H         -46.780788     -122.754234      -41.391483
 H         -44.852203     -123.396309      -42.746902
 H         -43.760944     -122.655602      -41.624866
