20
 generated by VMD
 C         -12.632484      -30.250490       -8.111268
 N         -13.119322      -30.628946       -7.182392
 H         -11.168238      -30.390888       -5.306271
 H         -10.787509      -30.805355       -3.730893
 C         -10.906620      -31.263781       -4.741694
 C          -9.584700      -31.841242       -5.267806
 C         -11.981292      -32.333054       -4.658355
 C          -9.080204      -33.048153       -4.586554
 C         -11.464229      -33.561588       -3.950308
 C         -10.145001      -34.107613       -4.581292
 H          -8.841125      -31.040600       -5.210200
 H          -9.721040      -32.074253       -6.347615
 H         -12.806888      -31.901875       -4.105235
 H         -12.429446      -32.662529       -5.595579
 H          -8.747172      -32.854576       -3.564161
 H          -8.238339      -33.490585       -5.120495
 H         -12.262917      -34.377945       -3.903512
 H         -11.253903      -33.274815       -2.922269
 H          -9.815104      -35.028252       -4.073136
 H         -10.278266      -34.530827       -5.554538
