20
 generated by VMD
 C         -60.181458     -156.527344      -55.586983
 N         -60.855492     -155.626709      -56.009529
 H         -59.738873     -157.942566      -52.868694
 H         -59.509781     -157.401077      -55.428970
 C         -58.684780     -157.975754      -52.773880
 C         -57.786652     -156.809982      -52.620338
 C         -58.258984     -159.249649      -52.163658
 C         -57.317127     -156.660355      -51.155827
 C         -57.956329     -159.072525      -50.743633
 C         -56.903934     -158.019440      -50.576210
 H         -58.186001     -155.807098      -53.072224
 H         -57.011269     -157.141251      -53.364658
 H         -59.147610     -159.962082      -52.164406
 H         -57.473297     -159.738907      -52.810322
 H         -58.180950     -156.294388      -50.587482
 H         -56.465515     -155.856125      -51.031349
 H         -57.531487     -160.089935      -50.389706
 H         -58.895229     -159.018951      -50.137753
 H         -56.586700     -157.949615      -49.604839
 H         -55.989197     -158.242096      -51.244869
