20
 generated by VMD
 C         -78.308083     -209.777191      -77.129875
 N         -78.854980     -208.818268      -77.463203
 H         -78.530884     -210.821060      -73.725349
 H         -77.861801     -210.736969      -76.698532
 C         -78.743477     -211.471771      -72.942520
 C         -77.680031     -211.703583      -71.984482
 C         -79.881638     -212.437057      -72.870102
 C         -78.187691     -212.246719      -70.614372
 C         -80.385521     -212.662659      -71.450310
 C         -79.226608     -213.251465      -70.628143
 H         -77.094032     -210.766754      -71.962448
 H         -76.933846     -212.358185      -72.420219
 H         -80.693748     -212.132202      -73.559860
 H         -79.348938     -213.394043      -73.129623
 H         -78.396202     -211.399704      -69.990662
 H         -77.416512     -212.771744      -70.060501
 H         -81.301773     -213.313538      -71.467766
 H         -80.799095     -211.763596      -71.058601
 H         -79.709290     -213.384888      -69.655060
 H         -78.880493     -214.230652      -70.832741
