20
 generated by VMD
 C         -29.878036      -91.507240      -25.388248
 N         -29.025406      -92.165955      -24.884609
 H         -32.572235      -89.900475      -26.629614
 H         -30.623798      -90.998100      -25.919481
 C         -33.075401      -90.413795      -27.385357
 C         -34.168777      -91.449104      -27.288973
 C         -33.190102      -89.551262      -28.704195
 C         -35.551884      -90.988411      -27.742071
 C         -34.575657      -89.040787      -28.875984
 C         -35.713417      -90.069008      -28.881971
 H         -34.113182      -91.735641      -26.188084
 H         -33.723385      -92.217377      -27.954428
 H         -32.548271      -88.703613      -28.688639
 H         -32.981773      -90.084831      -29.611382
 H         -35.977478      -90.471146      -26.871302
 H         -36.168713      -91.928726      -27.859957
 H         -34.727528      -88.466751      -29.814993
 H         -34.733482      -88.427467      -27.980616
 H         -36.672253      -89.519859      -28.891045
 H         -35.653625      -90.743294      -29.740799
