20
 generated by VMD
 C         -11.491629      -41.768806       -6.978413
 N         -11.802936      -42.363907       -6.105719
 H         -14.898016      -43.236607       -8.160276
 H         -15.005768      -41.791939       -9.325181
 C         -15.306393      -42.807178       -9.090909
 C         -16.842915      -42.694134       -8.967916
 C         -14.831815      -43.694931      -10.316113
 C         -17.548264      -42.461998      -10.275455
 C         -15.586645      -43.388321      -11.609996
 C         -17.088938      -43.511410      -11.291711
 H         -17.114569      -41.973064       -8.182661
 H         -17.258329      -43.645206       -8.557677
 H         -13.730615      -43.631168      -10.380903
 H         -14.877638      -44.757072      -10.072030
 H         -17.363701      -41.474937      -10.761549
 H         -18.636181      -42.436443      -10.074832
 H         -15.356900      -44.127316      -12.326537
 H         -15.378531      -42.319298      -11.999557
 H         -17.606810      -43.381607      -12.223618
 H         -17.191652      -44.542145      -10.912625
