20
 generated by VMD
 C         -31.053686      -75.406395      -21.374310
 N         -32.200974      -75.617943      -21.678766
 H         -28.131237      -76.006386      -20.335093
 H         -30.043722      -75.178352      -21.118137
 C         -27.321283      -75.662201      -20.971958
 C         -26.662642      -76.687126      -21.716753
 C         -26.469286      -74.423035      -20.559250
 C         -25.767551      -76.153328      -22.827118
 C         -25.552423      -74.031624      -21.799038
 C         -24.745857      -75.148972      -22.290916
 H         -27.551537      -77.156105      -22.171530
 H         -26.039942      -77.437035      -21.098814
 H         -27.172976      -73.638107      -20.360590
 H         -25.813124      -74.641792      -19.746639
 H         -26.344213      -75.677795      -23.621120
 H         -25.169855      -76.956490      -23.253944
 H         -24.880552      -73.224052      -21.421448
 H         -26.129934      -73.575180      -22.613083
 H         -24.020628      -74.723198      -23.040472
 H         -23.993330      -75.710419      -21.662609
