20
 generated by VMD
 C         -78.946373     -207.409302      -75.300270
 N         -79.947021     -206.958282      -75.738945
 H         -77.822617     -209.117172      -73.330513
 H         -78.085258     -207.720840      -74.823235
 C         -77.609016     -209.106125      -72.315514
 C         -76.497101     -208.435654      -71.770920
 C         -78.225929     -210.131744      -71.492676
 C         -76.513786     -208.154251      -70.294632
 C         -78.194656     -209.960098      -69.969109
 C         -76.835724     -209.427414      -69.513321
 H         -76.034492     -207.599197      -72.301834
 H         -75.743813     -209.226212      -71.801643
 H         -79.265083     -210.228912      -71.774727
 H         -77.663223     -211.010162      -71.905952
 H         -77.350082     -207.400223      -70.098595
 H         -75.525269     -207.658356      -70.058556
 H         -78.513176     -210.834167      -69.420998
 H         -78.876587     -209.099670      -69.622238
 H         -76.894936     -209.326309      -68.446419
 H         -75.963341     -210.021729      -69.685043
