20
 generated by VMD
 C         -37.981281     -108.007202      -37.315468
 N         -38.766232     -107.664619      -38.073372
 H         -40.528385     -108.480972      -34.646355
 H         -37.459988     -108.227280      -36.391148
 C         -41.018776     -109.374382      -34.530979
 C         -40.046299     -110.421288      -34.779438
 C         -42.332165     -109.691208      -33.972874
 C         -39.846645     -111.345039      -33.464199
 C         -42.235813     -110.507126      -32.693787
 C         -41.356014     -111.760971      -32.877632
 H         -39.042732     -110.057190      -35.031792
 H         -40.430809     -111.160332      -35.475792
 H         -42.896786     -108.741943      -33.797535
 H         -42.910530     -110.297638      -34.682690
 H         -39.293957     -110.745956      -32.863918
 H         -39.308277     -112.260971      -33.812019
 H         -43.369602     -110.622314      -32.401104
 H         -41.796093     -109.904556      -31.860378
 H         -41.351715     -112.479111      -31.937227
 H         -41.834633     -112.319695      -33.626987
