20
 generated by VMD
 C         -23.522993      -55.053375      -15.021534
 N         -22.705416      -54.787575      -15.847978
 H         -20.168736      -54.603405      -15.426300
 H         -24.070721      -55.372185      -14.074422
 C         -19.448635      -55.251930      -14.863242
 C         -19.014301      -54.834480      -13.527907
 C         -18.970718      -56.540375      -15.357516
 C         -19.048689      -56.024685      -12.585724
 C         -19.468161      -57.619678      -14.401686
 C         -18.596392      -57.363007      -13.116826
 H         -19.704229      -54.103397      -13.098850
 H         -18.050827      -54.437965      -13.710309
 H         -19.359810      -56.760921      -16.352682
 H         -17.945068      -56.475449      -15.326765
 H         -20.060818      -56.186218      -12.191393
 H         -18.492142      -55.748421      -11.681758
 H         -19.336948      -58.627659      -14.788316
 H         -20.594948      -57.500332      -14.202677
 H         -18.711052      -58.241692      -12.451637
 H         -17.511223      -57.427921      -13.329719
