20
 generated by VMD
 C          -1.935862      -13.184923        0.532869
 N          -1.591479      -13.337055        1.580982
 H          -3.492657      -16.537949        1.716303
 H          -4.042019      -16.139305        0.076878
 C          -4.349088      -16.440367        1.077272
 C          -5.294961      -15.278523        1.514925
 C          -5.123172      -17.774904        0.939977
 C          -6.557653      -15.202167        0.635805
 C          -6.386087      -17.617529        0.079310
 C          -7.288702      -16.587128        0.608538
 H          -4.717453      -14.321902        1.386039
 H          -5.477513      -15.357770        2.585975
 H          -4.538345      -18.504271        0.519996
 H          -5.469625      -18.100677        1.869795
 H          -6.364647      -15.018787       -0.383538
 H          -7.238166      -14.471262        1.017704
 H          -6.917983      -18.579174        0.182362
 H          -6.146282      -17.408882       -0.963921
 H          -8.167512      -16.514669       -0.040415
 H          -7.650705      -16.885963        1.610137
