20
 generated by VMD
 C         -16.940046      -47.884373       -7.170684
 N         -16.500126      -46.852207       -7.082710
 H         -16.575947      -48.472469      -10.374093
 H         -15.456166      -48.240009      -11.641283
 C         -16.376324      -47.794472      -11.229090
 C         -16.090210      -46.478683      -10.619382
 C         -17.535770      -47.901035      -12.288008
 C         -15.716517      -45.581268      -11.784814
 C         -17.232084      -46.911057      -13.441642
 C         -16.804428      -45.575172      -12.881581
 H         -15.260033      -46.554218       -9.950740
 H         -16.965096      -46.065048      -10.111033
 H         -17.415253      -48.883911      -12.707280
 H         -18.506807      -47.672478      -11.896107
 H         -14.886066      -46.081272      -12.285368
 H         -15.420313      -44.569912      -11.461851
 H         -18.179874      -46.978027      -14.115697
 H         -16.408585      -47.247448      -14.081816
 H         -16.301268      -45.024460      -13.694751
 H         -17.684317      -44.977806      -12.457641
