20
 generated by VMD
 C         -30.378086      -75.830635      -23.176636
 N         -30.906891      -75.781845      -24.211693
 H         -29.411774      -78.649101      -21.736065
 H         -30.280563      -75.704910      -22.186199
 C         -28.438107      -78.074745      -21.762060
 C         -27.565969      -78.234039      -22.966545
 C         -27.686275      -77.746567      -20.489220
 C         -26.714329      -77.006256      -23.141460
 C         -26.865612      -76.521446      -20.576986
 C         -25.865347      -76.614784      -21.832666
 H         -28.261732      -78.289619      -23.803633
 H         -26.924995      -79.019249      -22.836115
 H         -28.345430      -77.667984      -19.602139
 H         -26.994568      -78.505821      -20.336735
 H         -27.457657      -76.276337      -23.416235
 H         -26.009962      -77.159645      -23.970655
 H         -26.288891      -76.145966      -19.742352
 H         -27.661453      -75.699181      -20.912706
 H         -25.352594      -75.668999      -22.037598
 H         -25.165201      -77.450287      -21.607664
