20
 generated by VMD
 C         -21.762503      -66.265793      -16.635695
 N         -20.874138      -66.730476      -16.060390
 H         -24.243437      -64.178391      -18.579994
 H         -22.552250      -65.684868      -16.824314
 C         -24.544275      -65.176491      -18.636053
 C         -24.449961      -65.649948      -20.064753
 C         -25.352213      -65.857361      -17.649639
 C         -24.289801      -67.187408      -20.027529
 C         -25.673985      -67.405907      -17.949362
 C         -25.465908      -67.871384      -19.363905
 H         -23.514114      -65.200600      -20.395700
 H         -25.269262      -65.266464      -20.786924
 H         -24.659296      -65.812622      -16.748793
 H         -26.336596      -65.397926      -17.484976
 H         -23.449749      -67.625954      -19.506121
 H         -24.154161      -67.586487      -20.979204
 H         -26.724211      -67.699242      -17.802149
 H         -25.051039      -67.896584      -17.240072
 H         -25.333075      -69.012947      -19.328121
 H         -26.423861      -67.738808      -19.896320
