20
 generated by VMD
 C         -38.137348     -108.008469      -37.258255
 N         -38.812973     -107.535126      -38.100391
 H         -40.472183     -108.352226      -34.449223
 H         -37.318989     -108.553513      -36.753029
 C         -40.913826     -109.310516      -34.492661
 C         -39.944557     -110.517242      -34.665707
 C         -42.322044     -109.603714      -33.987202
 C         -39.928513     -111.301292      -33.394306
 C         -42.176647     -110.466698      -32.736092
 C         -41.247631     -111.620430      -32.959866
 H         -38.885513     -110.281166      -34.850563
 H         -40.362156     -111.231789      -35.396866
 H         -42.927921     -108.702492      -33.715641
 H         -42.782417     -110.143608      -34.813999
 H         -39.456341     -110.715111      -32.663628
 H         -39.364223     -112.267769      -33.591942
 H         -43.183880     -110.894005      -32.359058
 H         -41.865181     -109.795471      -31.913540
 H         -41.081535     -112.167282      -31.894276
 H         -41.739628     -112.345695      -33.544159
