20
 generated by VMD
 C         -28.415119      -84.634819      -26.287380
 N         -28.079023      -83.836662      -27.071575
 H         -31.142319      -84.427795      -26.208265
 H         -28.678829      -85.460144      -25.598455
 C         -31.422953      -85.375557      -25.795141
 C         -31.455191      -85.702705      -24.288887
 C         -31.925245      -86.608307      -26.728910
 C         -32.921715      -86.115189      -23.914604
 C         -33.271759      -87.197350      -26.222580
 C         -33.374756      -87.304085      -24.736689
 H         -31.291996      -84.796844      -23.644573
 H         -30.736858      -86.462425      -23.952070
 H         -32.072605      -86.286476      -27.803541
 H         -31.086266      -87.333344      -26.720638
 H         -33.505375      -85.326012      -24.325087
 H         -33.104752      -86.486267      -22.845016
 H         -33.441246      -88.155357      -26.736933
 H         -33.939064      -86.469574      -26.597683
 H         -34.317986      -87.452209      -24.345783
 H         -32.808956      -88.151184      -24.505775
