20
 generated by VMD
 C         -30.225912      -92.742073      -25.932159
 N         -31.349169      -92.773079      -25.545376
 H         -33.021210      -90.727432      -26.333408
 H         -29.205643      -92.844276      -26.211222
 C         -33.538776      -90.843208      -27.254681
 C         -34.331921      -92.101357      -27.326998
 C         -33.069378      -90.103264      -28.491053
 C         -35.610600      -91.824409      -28.129377
 C         -34.254383      -89.849510      -29.363489
 C         -35.305477      -91.064468      -29.440353
 H         -34.579105      -92.412651      -26.413368
 H         -33.955982      -92.937531      -27.814877
 H         -32.674484      -89.171051      -28.096998
 H         -32.345123      -90.758675      -28.956493
 H         -36.392590      -91.213768      -27.529791
 H         -36.018967      -92.794907      -28.320601
 H         -33.952793      -89.569557      -30.396673
 H         -34.715168      -88.959053      -28.887093
 H         -36.129883      -90.501823      -29.915525
 H         -35.022724      -91.856239      -30.139811
