20
 generated by VMD
 C         -49.893528     -128.864288      -42.913025
 N         -50.665554     -128.663254      -43.788952
 H         -48.691807     -128.251114      -39.961346
 H         -49.014462     -129.046844      -42.282452
 C         -47.699673     -128.128952      -40.429008
 C         -46.674931     -129.148468      -40.011219
 C         -47.429134     -126.856857      -41.072124
 C         -45.582474     -129.292343      -40.962303
 C         -46.375259     -127.042175      -42.170528
 C         -45.178520     -127.853508      -41.647087
 H         -47.039600     -130.152344      -39.734890
 H         -46.364445     -128.723450      -39.039871
 H         -48.390778     -126.526978      -41.635452
 H         -47.060886     -126.134346      -40.333157
 H         -45.744747     -130.055954      -41.733929
 H         -44.711060     -129.850266      -40.515190
 H         -45.887798     -126.124763      -42.599632
 H         -46.861217     -127.540215      -43.080311
 H         -44.566086     -128.070465      -42.519382
 H         -44.630939     -127.377899      -40.892532
