20
 generated by VMD
 C         -70.277016     -182.955063      -64.316162
 N         -70.218346     -183.505981      -65.368660
 H         -68.759384     -180.265732      -62.350739
 H         -70.293480     -182.466431      -63.307713
 C         -67.803513     -180.659103      -61.868847
 C         -67.778091     -182.070999      -61.295105
 C         -66.922157     -179.661652      -61.051819
 C         -66.476227     -182.562943      -60.638664
 C         -65.658463     -180.255219      -60.383904
 C         -65.834389     -181.604767      -59.731422
 H         -68.036491     -182.717697      -62.122837
 H         -68.435127     -182.155548      -60.495556
 H         -66.695564     -178.806396      -61.821770
 H         -67.581856     -179.288620      -60.264580
 H         -65.645470     -182.855576      -61.450703
 H         -66.597939     -183.483276      -60.021923
 H         -65.345963     -179.491913      -59.660000
 H         -64.856461     -180.415573      -61.082752
 H         -64.908905     -182.000595      -59.219482
 H         -66.524811     -181.622360      -58.969475
