20
 generated by VMD
 C         -20.083189      -57.320831      -16.770733
 N         -19.176800      -57.546406      -17.496382
 H         -22.654404      -59.543507      -17.263739
 H         -21.038483      -57.146469      -16.301231
 C         -22.497477      -60.462002      -16.657715
 C         -23.779091      -61.143845      -16.408457
 C         -21.264055      -60.817482      -15.903162
 C         -23.796423      -62.183525      -15.273941
 C         -21.318699      -62.253223      -15.552092
 C         -22.435261      -62.496956      -14.527525
 H         -24.241253      -61.570751      -17.298058
 H         -24.408691      -60.290047      -15.983406
 H         -20.433329      -60.587658      -16.557467
 H         -21.152258      -60.183128      -15.004771
 H         -24.144911      -63.132759      -15.646845
 H         -24.509264      -61.816364      -14.554712
 H         -20.449648      -62.645176      -15.067808
 H         -21.474842      -62.728531      -16.516453
 H         -22.476019      -63.520679      -14.232553
 H         -22.338734      -61.818317      -13.623057
