20
 generated by VMD
 C         -23.118217      -55.210228      -16.795759
 N         -23.554583      -54.889046      -15.818073
 H         -19.302931      -55.314499      -15.630847
 H         -22.560577      -55.624813      -17.764963
 C         -19.327841      -56.202419      -14.905629
 C         -19.705093      -56.014236      -13.423355
 C         -18.405573      -57.315903      -15.172549
 C         -20.528042      -57.243401      -13.023165
 C         -18.890032      -58.665382      -14.628202
 C         -19.870132      -58.670795      -13.442690
 H         -20.149191      -55.049286      -13.176074
 H         -18.776022      -56.170689      -12.921755
 H         -18.226168      -57.394634      -16.304380
 H         -17.465994      -56.989845      -14.716444
 H         -21.446848      -57.168476      -13.604270
 H         -20.797283      -57.305759      -11.969267
 H         -18.055237      -59.358017      -14.377197
 H         -19.385292      -59.168640      -15.514783
 H         -20.676680      -59.412693      -13.644135
 H         -19.342978      -58.987709      -12.533323
