20
 generated by VMD
 C         -67.392578     -192.336319      -67.205200
 N         -68.328331     -192.765640      -66.686760
 H         -69.762497     -190.221603      -65.179718
 H         -66.527863     -191.826599      -67.501266
 C         -70.876671     -190.244965      -65.131828
 C         -71.699928     -190.794952      -66.188393
 C         -71.579346     -189.561310      -63.951027
 C         -72.692154     -191.762924      -65.570290
 C         -73.116219     -189.910446      -63.929886
 C         -73.345032     -191.374756      -64.264282
 H         -71.121376     -191.171143      -67.016800
 H         -72.239517     -189.958847      -66.753563
 H         -71.155869     -189.837036      -63.051247
 H         -71.431496     -188.470215      -64.041656
 H         -72.220566     -192.692642      -65.369980
 H         -73.593430     -191.905701      -66.207581
 H         -73.765778     -189.264236      -64.578133
 H         -73.615311     -189.823334      -62.969868
 H         -72.917984     -192.161560      -63.499252
 H         -74.443649     -191.567642      -64.494728
