20
 generated by VMD
 C         -11.324090      -38.338585       -7.655708
 N         -11.597014      -37.607616       -6.884576
 H         -12.672636      -41.723129       -9.072804
 H         -13.262465      -40.615669       -7.853096
 C         -13.621154      -41.386982       -8.644809
 C         -14.556342      -42.420849       -8.189454
 C         -14.235454      -40.579529       -9.822608
 C         -15.872935      -41.820877       -7.778489
 C         -15.682810      -40.122738       -9.633924
 C         -16.486238      -41.194546       -9.005228
 H         -14.182460      -42.953827       -7.275961
 H         -14.801897      -43.102505       -9.012251
 H         -13.688742      -39.631908       -9.961566
 H         -14.218600      -41.167374      -10.707927
 H         -15.616602      -41.042236       -7.033417
 H         -16.536968      -42.600658       -7.389438
 H         -16.114204      -39.830429      -10.632758
 H         -15.700925      -39.177094       -9.081816
 H         -17.510683      -40.770733       -8.774126
 H         -16.700270      -42.030979       -9.692818
