20
 generated by VMD
 C         -12.051822      -41.552685       -7.531552
 N         -11.647060      -40.747715       -6.878133
 H         -14.119954      -40.788666       -8.166644
 H         -15.203268      -40.143375       -9.447836
 C         -14.864454      -41.058681       -8.986119
 C         -15.949834      -41.763897       -8.185175
 C         -14.288626      -42.032955       -9.998214
 C         -17.066359      -42.155266       -9.150104
 C         -15.344802      -42.556702      -10.960235
 C         -16.471409      -43.152084      -10.135267
 H         -16.393051      -41.152126       -7.396839
 H         -15.541888      -42.654434       -7.797856
 H         -13.499476      -41.445744      -10.449054
 H         -13.859216      -42.846046       -9.503179
 H         -17.515673      -41.334980       -9.681541
 H         -17.842966      -42.666149       -8.584299
 H         -14.953865      -43.339535      -11.647874
 H         -15.741941      -41.745712      -11.637600
 H         -17.292860      -43.475521      -10.841713
 H         -16.152702      -44.103756       -9.674788
