20
 generated by VMD
 C          -9.256956      -24.176573        1.739741
 N          -9.299335      -25.205473        2.164823
 H          -7.718523      -23.090839       -0.752167
 H          -8.813312      -22.649878       -1.867319
 C          -7.752545      -22.967665       -1.819095
 C          -7.529988      -24.237326       -2.683039
 C          -6.774193      -21.859798       -2.224238
 C          -7.723193      -23.949503       -4.234326
 C          -6.948372      -21.557224       -3.679881
 C          -6.862194      -22.732592       -4.666431
 H          -8.167621      -25.087862       -2.447289
 H          -6.438945      -24.574217       -2.551716
 H          -7.003658      -20.937380       -1.672691
 H          -5.732688      -22.195133       -2.064028
 H          -8.763578      -23.649672       -4.286738
 H          -7.519026      -24.841267       -4.778479
 H          -6.238371      -20.778978       -3.979767
 H          -7.950904      -21.174248       -3.799069
 H          -7.128834      -22.354382       -5.682906
 H          -5.822976      -23.063080       -4.618857
