20
 generated by VMD
 C         -38.501705     -111.469475      -36.077778
 N         -38.412220     -110.776726      -37.005558
 H         -40.424473     -114.330673      -34.873302
 H         -38.434906     -112.234581      -35.372307
 C         -41.523922     -114.310860      -35.240974
 C         -41.837429     -114.544281      -36.750244
 C         -42.284954     -113.380043      -34.293190
 C         -43.293453     -114.273140      -36.889812
 C         -43.656178     -113.174118      -34.747086
 C         -43.767059     -112.956093      -36.274342
 H         -41.676895     -115.571739      -36.853481
 H         -41.230869     -113.896744      -37.350357
 H         -42.125622     -113.914536      -33.364838
 H         -41.740299     -112.414879      -34.262909
 H         -43.960308     -115.013351      -36.576740
 H         -43.450138     -114.187157      -37.990734
 H         -44.028934     -112.122841      -34.324982
 H         -44.346897     -114.093910      -34.484325
 H         -44.831017     -112.784698      -36.500553
 H         -43.211208     -112.005348      -36.562500
