20
 generated by VMD
 C         -68.403046     -185.590851      -67.098251
 N         -67.887451     -184.605194      -67.352409
 H         -68.953308     -188.359756      -64.589264
 H         -68.993919     -186.465454      -66.830841
 C         -69.440636     -187.928848      -63.733604
 C         -69.310234     -186.490814      -63.588303
 C         -70.409966     -188.696945      -62.948555
 C         -69.375267     -186.050552      -62.136375
 C         -70.592430     -188.120361      -61.576729
 C         -70.695953     -186.566376      -61.605446
 H         -70.076927     -185.964828      -64.268570
 H         -68.286102     -186.263794      -63.985939
 H         -71.378975     -188.770676      -63.524212
 H         -70.083946     -189.813126      -62.886993
 H         -69.137558     -185.009857      -62.165077
 H         -68.644684     -186.655792      -61.511673
 H         -69.799469     -188.380600      -60.807610
 H         -71.507942     -188.594742      -61.158195
 H         -71.449585     -186.277618      -62.299385
 H         -70.866409     -186.113327      -60.664314
