20
 generated by VMD
 C         -57.020859     -163.613373      -56.693710
 N         -57.232212     -162.644211      -57.290546
 H         -59.803818     -164.294678      -54.563534
 H         -56.757999     -164.478806      -56.134708
 C         -60.862934     -164.689835      -54.654949
 C         -61.529270     -165.079605      -53.416157
 C         -61.582153     -164.597107      -55.935555
 C         -62.868732     -164.445251      -53.298725
 C         -62.794464     -163.787415      -55.727982
 C         -63.673058     -164.248215      -54.559841
 H         -60.840149     -164.937363      -52.522518
 H         -61.543926     -166.239563      -53.364315
 H         -60.860554     -164.191818      -56.759121
 H         -61.709675     -165.666031      -56.148003
 H         -62.759487     -163.438919      -52.840096
 H         -63.448051     -165.183334      -52.640865
 H         -63.450954     -163.754730      -56.584419
 H         -62.648956     -162.698944      -55.769691
 H         -64.322128     -163.439667      -54.316658
 H         -64.173401     -165.096832      -54.792976
