20
 generated by VMD
 C         -12.682214      -30.141539       -8.291828
 N         -13.439284      -30.734640       -7.725646
 H         -11.058195      -30.603518       -5.153859
 H         -10.712020      -31.145853       -3.493596
 C         -10.815213      -31.468880       -4.575675
 C          -9.496540      -32.026917       -5.139327
 C         -11.908311      -32.541462       -4.803534
 C          -9.219460      -33.349480       -4.459026
 C         -11.626063      -33.842197       -4.091843
 C         -10.301440      -34.372948       -4.551490
 H          -8.548859      -31.417646       -5.034134
 H          -9.545959      -32.200226       -6.192190
 H         -12.910129      -32.222328       -4.533827
 H         -12.009171      -32.713028       -5.883975
 H          -8.977288      -33.199245       -3.406460
 H          -8.288529      -33.754761       -4.884294
 H         -12.436898      -34.543854       -4.278448
 H         -11.651131      -33.678528       -2.974126
 H         -10.065651      -35.282848       -4.033003
 H         -10.406363      -34.743233       -5.567521
