20
 generated by VMD
 C         -21.246429      -52.146244       -9.828326
 N         -21.419058      -52.863201      -10.723197
 H         -19.482925      -50.027679      -12.682787
 H         -21.045210      -51.770596       -8.960292
 C         -18.423388      -50.285862      -12.782761
 C         -18.195248      -51.688938      -13.205607
 C         -17.457840      -49.324516      -12.162095
 C         -16.860735      -51.603699      -14.016217
 C         -16.377167      -49.208958      -13.211936
 C         -15.815796      -50.609905      -13.442412
 H         -19.001059      -52.099327      -13.832380
 H         -18.205595      -52.398106      -12.315471
 H         -17.812647      -48.304634      -11.891552
 H         -17.068678      -49.800297      -11.282334
 H         -17.116665      -51.337349      -15.048545
 H         -16.456919      -52.628159      -13.950328
 H         -15.528625      -48.529942      -12.864730
 H         -16.736879      -48.785965      -14.104005
 H         -14.983484      -50.583469      -14.131850
 H         -15.367230      -51.035839      -12.567357
