20
 generated by VMD
 C         -13.288606      -30.388708       -8.315907
 N         -13.738963      -30.232529       -9.318377
 H         -10.846065      -31.254932       -5.380085
 H         -10.931920      -31.745964       -3.696697
 C         -10.827420      -32.068218       -4.679015
 C          -9.479341      -32.657814       -4.787835
 C         -11.900156      -33.104115       -4.984050
 C          -9.323814      -34.006233       -4.077552
 C         -11.828995      -34.444725       -4.276499
 C         -10.455472      -35.013214       -4.484621
 H          -8.759657      -32.021545       -4.361976
 H          -9.220955      -32.840782       -5.842295
 H         -12.868311      -32.607670       -4.754611
 H         -11.838228      -33.282352       -6.084610
 H          -9.494949      -33.819374       -2.983610
 H          -8.270089      -34.382618       -4.161093
 H         -12.655815      -35.129276       -4.725970
 H         -12.011375      -34.341091       -3.229383
 H         -10.438795      -36.016609       -3.958836
 H         -10.324120      -35.130959       -5.549414
