20
 generated by VMD
 C         -38.461391      -98.629990      -27.790031
 N         -38.387669      -99.729149      -27.367203
 H         -37.482189      -97.754585      -30.688290
 H         -38.436459      -97.625793      -28.047890
 C         -36.445545      -97.511047      -30.814129
 C         -35.677753      -98.141022      -31.982483
 C         -35.648605      -97.334579      -29.593906
 C         -34.376995      -97.322144      -32.153599
 C         -34.504242      -96.336159      -29.831079
 C         -33.659248      -96.723763      -31.020317
 H         -36.259205      -98.122704      -32.883240
 H         -35.281681      -99.158272      -31.877005
 H         -36.318729      -96.823235      -28.930901
 H         -35.267994      -98.296432      -29.136953
 H         -34.429077      -96.548744      -32.919052
 H         -33.686184      -97.975410      -32.482361
 H         -34.004116      -96.159195      -28.882908
 H         -35.085480      -95.422150      -30.172487
 H         -32.889488      -95.987030      -31.520109
 H         -33.022511      -97.421715      -30.564106
