20
 generated by VMD
 C         -38.386257      -98.668480      -27.790033
 N         -38.144238      -99.536034      -27.035070
 H         -37.410770      -97.697166      -30.393711
 H         -38.518291      -97.989685      -28.575397
 C         -36.311153      -97.544373      -30.574957
 C         -35.586494      -97.975258      -31.778786
 C         -35.692535      -96.763535      -29.565708
 C         -34.488720      -97.018532      -32.266205
 C         -34.342003      -96.135155      -29.811079
 C         -33.577652      -96.561897      -31.108240
 H         -36.231518      -98.031136      -32.697033
 H         -35.158024      -99.015350      -31.640562
 H         -36.426529      -95.985596      -29.227928
 H         -35.538795      -97.429695      -28.704731
 H         -34.934612      -96.129272      -32.679695
 H         -33.790962      -97.608345      -32.979435
 H         -33.708721      -96.317909      -28.872231
 H         -34.495178      -95.039940      -29.808258
 H         -33.110691      -95.678520      -31.415394
 H         -32.696644      -97.336075      -31.035574
