20
 generated by VMD
 C         -69.612511     -196.220734      -65.147537
 N         -68.583252     -196.669510      -65.346024
 H         -72.054726     -194.217789      -65.244408
 H         -70.579605     -195.807236      -64.982079
 C         -72.152573     -193.909500      -66.259964
 C         -72.236435     -192.439468      -66.584160
 C         -72.950714     -194.827347      -67.163475
 C         -73.687576     -191.955307      -66.623878
 C         -74.414093     -194.381943      -67.309410
 C         -74.552490     -192.827271      -67.503914
 H         -71.619347     -192.130722      -67.482704
 H         -71.578514     -191.828445      -65.942490
 H         -72.434532     -194.994095      -68.098572
 H         -73.039604     -195.867310      -66.832085
 H         -73.654121     -190.878754      -66.911827
 H         -74.204269     -191.929123      -65.635956
 H         -74.920853     -194.645355      -66.381454
 H         -74.962914     -194.880585      -68.134308
 H         -74.381218     -192.630188      -68.649567
 H         -75.600395     -192.659164      -67.421471
