20
 generated by VMD
 C         -69.217995     -180.350510      -59.578941
 N         -68.639709     -180.969193      -60.398888
 H         -67.374634     -176.808762      -59.569561
 H         -69.725967     -179.888458      -58.764862
 C         -66.448494     -176.918808      -59.957073
 C         -66.057564     -176.694122      -61.413803
 C         -65.284416     -176.908463      -58.888214
 C         -64.856384     -175.701645      -61.529980
 C         -64.061310     -176.027466      -59.198326
 C         -63.672131     -176.061905      -60.611492
 H         -66.885231     -176.137405      -61.854298
 H         -65.745430     -177.548096      -61.994892
 H         -65.618660     -176.819458      -57.834736
 H         -64.858055     -177.958847      -58.976887
 H         -65.286301     -174.681335      -61.177937
 H         -64.434273     -175.496689      -62.567097
 H         -63.158031     -176.183411      -58.519985
 H         -64.367897     -175.006439      -58.858532
 H         -62.831459     -175.340958      -60.722031
 H         -63.362507     -177.083832      -60.908592
