20
 generated by VMD
 C         -12.253446      -30.789896       -8.450049
 N         -11.953272      -30.622780       -7.402096
 H         -11.630622      -34.660538       -7.915426
 H         -12.842014      -34.132885       -6.742443
 C         -11.852852      -34.677643       -6.801298
 C         -10.770727      -33.823765       -6.130678
 C         -12.115346      -35.974464       -6.080011
 C         -11.153600      -33.618546       -4.666969
 C         -12.380435      -35.768620       -4.579839
 C         -11.280643      -34.951019       -3.943191
 H         -10.679708      -32.860199       -6.606852
 H          -9.810626      -34.359470       -6.271580
 H         -13.027393      -36.438618       -6.441889
 H         -11.328279      -36.738712       -6.195923
 H         -12.083832      -33.017525       -4.598931
 H         -10.432673      -32.975723       -4.193391
 H         -12.574618      -36.689610       -4.117833
 H         -13.393759      -35.231293       -4.520829
 H         -11.583868      -34.663033       -2.972686
 H         -10.320851      -35.479862       -3.883475
