20
 generated by VMD
 C         -59.788105     -152.347702      -51.040977
 N         -60.626057     -153.151199      -51.045887
 H         -56.761955     -152.057953      -48.568245
 H         -58.924709     -151.703842      -51.129810
 C         -56.036503     -151.729828      -49.293808
 C         -54.911160     -152.625275      -49.808968
 C         -55.837570     -150.191574      -49.550854
 C         -54.011124     -152.190002      -50.959919
 C         -55.099087     -149.898529      -50.810295
 C         -53.830578     -150.696594      -50.971676
 H         -55.303585     -153.646576      -49.992470
 H         -54.232208     -152.579681      -49.023289
 H         -56.861012     -149.726700      -49.511429
 H         -55.411304     -149.801529      -48.589714
 H         -54.522129     -152.515686      -51.840996
 H         -52.988308     -152.653137      -50.848103
 H         -54.996403     -148.879730      -51.095547
 H         -55.888714     -150.175522      -51.601120
 H         -53.531746     -150.346313      -51.947861
 H         -53.201187     -150.311203      -50.146576
