20
 generated by VMD
 C         -40.728733     -103.941887      -37.186142
 N         -40.307343     -104.785706      -36.494476
 H         -39.928001     -106.690781      -34.651821
 H         -41.131191     -102.975494      -37.554508
 C         -39.625809     -107.036308      -33.616184
 C         -38.356781     -106.398384      -32.994888
 C         -39.833881     -108.533424      -33.341640
 C         -38.019981     -106.938286      -31.635393
 C         -39.646130     -108.884644      -31.923346
 C         -38.292458     -108.459457      -31.435526
 H         -38.560741     -105.358681      -33.055023
 H         -37.437740     -106.498093      -33.634556
 H         -40.839321     -108.550568      -33.628571
 H         -39.318611     -109.186951      -34.019569
 H         -38.599899     -106.371346      -30.858747
 H         -36.925335     -106.862640      -31.462067
 H         -39.812931     -109.948036      -31.921446
 H         -40.442966     -108.555428      -31.319353
 H         -38.049316     -108.812485      -30.497047
 H         -37.474838     -108.866219      -32.180862
