20
 generated by VMD
 C         -57.916096     -164.582092      -56.593727
 N         -57.262020     -163.846298      -57.167854
 H         -60.086487     -164.392075      -53.947773
 H         -58.646263     -165.202118      -56.073246
 C         -60.921497     -164.840683      -54.489391
 C         -61.846985     -165.881699      -53.845867
 C         -61.327457     -164.320175      -55.860588
 C         -63.338547     -165.370987      -53.975494
 C         -62.875839     -163.927551      -55.963020
 C         -63.753288     -164.936569      -55.337040
 H         -61.602634     -166.008682      -52.832310
 H         -61.798367     -166.818176      -54.438847
 H         -60.596035     -163.480362      -56.205978
 H         -61.177738     -165.130386      -56.590557
 H         -63.473499     -164.564774      -53.179703
 H         -64.038994     -166.078537      -53.501934
 H         -63.059753     -163.596039      -57.110592
 H         -62.898983     -163.088562      -55.326889
 H         -64.746071     -164.580383      -55.376728
 H         -63.778831     -165.807037      -55.985920
