20
 generated by VMD
 C         -11.815486      -31.733564       -9.007688
 N         -12.522306      -32.350368       -9.656895
 H         -11.039060      -34.123798       -6.702403
 H         -11.884360      -34.059132       -5.202298
 C         -11.589864      -34.730026       -5.996277
 C         -10.693714      -35.729939       -5.262605
 C         -12.800740      -35.225086       -6.658345
 C         -11.508782      -36.703571       -4.337458
 C         -13.596373      -36.034302       -5.665425
 C         -12.741960      -37.206913       -5.106600
 H          -9.922812      -35.277477       -4.652107
 H         -10.309006      -36.417274       -6.025866
 H         -13.530150      -34.496529       -7.050943
 H         -12.514970      -35.844028       -7.522480
 H         -11.825701      -36.056602       -3.494218
 H         -10.868658      -37.518730       -4.028831
 H         -14.495506      -36.420315       -6.142005
 H         -13.877927      -35.380344       -4.817260
 H         -13.397943      -37.719685       -4.413349
 H         -12.436288      -37.966064       -5.893070
