20
 generated by VMD
 C          -1.443222      -10.714803        1.424024
 N          -0.937613      -11.699275        1.273161
 H          -3.888702      -13.190530        0.065571
 H          -5.345742      -12.720907        0.897968
 C          -4.609018      -13.550541        0.815408
 C          -3.900940      -13.936576        2.091682
 C          -5.282986      -14.793867        0.196467
 C          -4.873606      -14.433542        3.131127
 C          -6.248708      -15.468998        1.170611
 C          -5.594228      -15.679215        2.573662
 H          -3.486596      -13.042892        2.572556
 H          -3.218771      -14.732047        1.946263
 H          -5.799863      -14.353302       -0.708269
 H          -4.445645      -15.479206       -0.234778
 H          -5.580165      -13.690958        3.402691
 H          -4.354751      -14.760969        4.033267
 H          -6.689137      -16.413401        0.828289
 H          -7.028444      -14.766644        1.378588
 H          -6.282158      -16.128044        3.342577
 H          -4.746418      -16.429462        2.411693
