20
 generated by VMD
 C         -21.148478      -52.263977       -9.649341
 N         -21.368811      -52.590099      -10.760486
 H         -19.396526      -50.000767      -12.256057
 H         -20.713865      -51.617107       -8.775691
 C         -18.391582      -50.278084      -12.378298
 C         -17.905354      -51.608727      -12.820641
 C         -17.526169      -49.007355      -12.361408
 C         -16.950972      -51.390079      -13.989010
 C         -16.265625      -49.025425      -13.310594
 C         -15.803968      -50.431255      -13.602087
 H         -18.740704      -52.234440      -13.188166
 H         -17.457773      -52.129421      -12.014604
 H         -18.145681      -48.145248      -12.571936
 H         -17.102343      -48.988079      -11.337504
 H         -17.503277      -51.083656      -14.869199
 H         -16.594824      -52.399567      -14.200788
 H         -15.417990      -48.620380      -12.783416
 H         -16.423460      -48.308445      -14.144180
 H         -15.033372      -50.373299      -14.423631
 H         -15.282673      -50.888477      -12.691676
