20
 generated by VMD
 C         -58.299866     -159.075455      -57.925953
 N         -59.365967     -158.691742      -57.499195
 H         -59.271610     -159.915207      -54.572315
 H         -57.317501     -159.473663      -58.275116
 C         -59.466316     -160.668045      -53.863159
 C         -58.583626     -160.843933      -52.739140
 C         -60.637081     -161.568436      -53.881264
 C         -59.301144     -161.075546      -51.415966
 C         -61.375721     -161.731079      -52.627724
 C         -60.447014     -162.153870      -51.487942
 H         -58.013592     -159.912872      -52.451973
 H         -57.885777     -161.647430      -53.023716
 H         -61.324440     -161.240280      -54.550461
 H         -60.273212     -162.504120      -54.370510
 H         -59.699890     -160.141739      -51.187695
 H         -58.572803     -161.301773      -50.579506
 H         -62.185955     -162.467834      -52.775414
 H         -61.970795     -160.837997      -52.388733
 H         -61.131035     -162.075745      -50.557083
 H         -60.089355     -163.188721      -51.657314
