20
 generated by VMD
 C         -11.347480      -40.877594       -7.468707
 N         -11.661952      -40.445778       -6.509645
 H         -13.789758      -40.738377       -8.463380
 H         -15.015687      -40.064735       -9.458385
 C         -14.676712      -40.981071       -9.031034
 C         -15.696054      -41.684639       -8.083590
 C         -14.362366      -41.799023      -10.293421
 C         -16.976046      -42.114395       -8.834676
 C         -15.609460      -42.359253      -10.980732
 C         -16.659870      -43.026913       -9.998918
 H         -15.849879      -41.059040       -7.181590
 H         -15.179021      -42.533611       -7.674806
 H         -13.668741      -41.268490      -10.965822
 H         -13.802309      -42.663258      -10.022703
 H         -17.564648      -41.291466       -9.167698
 H         -17.668787      -42.665447       -8.177662
 H         -15.336803      -43.164577      -11.659645
 H         -16.177395      -41.581444      -11.512798
 H         -17.574371      -43.310383      -10.592281
 H         -16.156258      -43.890652       -9.547724
