20
 generated by VMD
 C         -12.701083      -30.112041       -8.331659
 N         -13.577619      -30.702406       -7.980025
 H         -11.097163      -30.653687       -5.246208
 H         -10.716269      -31.338842       -3.544969
 C         -10.808037      -31.569761       -4.601973
 C          -9.454309      -32.185856       -5.024292
 C         -12.008560      -32.582253       -4.830011
 C          -9.176083      -33.466259       -4.358742
 C         -11.637714      -33.892200       -4.113845
 C         -10.295391      -34.452229       -4.607140
 H          -8.682942      -31.493052       -4.799625
 H          -9.449357      -32.289116       -6.156434
 H         -12.930280      -32.221439       -4.352436
 H         -12.187483      -32.754944       -5.900338
 H          -9.053241      -33.370041       -3.281999
 H          -8.246572      -33.853008       -4.742406
 H         -12.465959      -34.659672       -4.147849
 H         -11.505525      -33.729439       -3.083592
 H         -10.065302      -35.412437       -4.016711
 H         -10.418079      -34.656422       -5.673493
