20
 generated by VMD
 C         -58.638798     -158.894272      -58.172836
 N         -58.857525     -159.651581      -57.259796
 H         -58.984627     -160.569824      -54.734261
 H         -58.391842     -158.166183      -58.953430
 C         -59.452187     -161.247345      -53.959927
 C         -58.718185     -161.451767      -52.645473
 C         -60.757210     -161.995087      -54.250004
 C         -59.590294     -161.516800      -51.441395
 C         -61.613319     -161.783707      -53.076725
 C         -60.924549     -162.192444      -51.721836
 H         -58.068172     -160.583527      -52.583485
 H         -58.199917     -162.468887      -52.583881
 H         -61.117023     -161.554352      -55.168419
 H         -60.594509     -163.136627      -54.411568
 H         -59.642155     -160.620972      -50.878902
 H         -59.057346     -162.244568      -50.749752
 H         -62.586433     -162.333237      -53.064854
 H         -61.927143     -160.722595      -52.974194
 H         -61.636589     -162.094193      -50.904720
 H         -60.783886     -163.298477      -51.942959
