20
 generated by VMD
 C         -20.712173      -52.306511       -9.594295
 N         -21.218382      -51.973507      -10.632445
 H         -18.554182      -49.809353      -10.969145
 H         -19.991316      -52.503315       -8.883608
 C         -17.935816      -49.842369      -11.880827
 C         -17.373331      -51.159565      -12.239831
 C         -17.439005      -48.488400      -12.311461
 C         -16.991982      -51.140728      -13.677604
 C         -16.610777      -48.659142      -13.563671
 C         -15.937042      -50.041195      -13.813634
 H         -18.035086      -51.967026      -11.886687
 H         -16.483118      -51.283096      -11.665842
 H         -18.331566      -47.894661      -12.557568
 H         -16.878311      -48.046234      -11.470148
 H         -17.833206      -50.938133      -14.375306
 H         -16.547232      -52.101398      -14.085327
 H         -15.847257      -47.914143      -13.719585
 H         -17.293776      -48.406815      -14.459955
 H         -15.564123      -50.068569      -14.867564
 H         -15.090582      -50.225121      -13.109272
