20
 generated by VMD
 C          -1.527464      -11.198978        1.577137
 N          -1.074621      -12.067230        0.979191
 H          -3.835001      -13.127413        0.250453
 H          -5.426827      -12.931623        0.736031
 C          -4.594577      -13.621608        0.845321
 C          -4.131474      -13.827286        2.260230
 C          -5.016404      -14.940078        0.136361
 C          -5.175131      -14.574156        3.076822
 C          -6.138968      -15.512515        0.977410
 C          -5.666196      -15.824964        2.391364
 H          -4.042316      -12.857165        2.747926
 H          -3.116101      -14.337222        2.333040
 H          -5.405840      -14.673139       -0.812823
 H          -4.198633      -15.548714       -0.106867
 H          -6.073879      -13.882555        3.158315
 H          -4.903291      -14.797680        4.109189
 H          -6.582422      -16.431761        0.588338
 H          -6.983900      -14.803681        1.099387
 H          -6.325906      -16.411327        3.003680
 H          -4.800300      -16.410461        2.291834
