20
 generated by VMD
 C         -41.837257     -102.079208      -33.773769
 N         -40.751328     -101.879227      -34.134197
 H         -39.280464     -103.999718      -32.687584
 H         -42.864418     -101.900414      -33.615444
 C         -38.247738     -103.854507      -32.192028
 C         -37.123600     -103.541733      -33.081779
 C         -38.099667     -104.484131      -30.912462
 C         -35.760296     -103.060387      -32.381435
 C         -36.838444     -103.944069      -30.239391
 C         -35.520790     -103.850044      -31.115246
 H         -37.267242     -102.675377      -33.752838
 H         -36.971806     -104.383286      -33.790451
 H         -39.028187     -104.419624      -30.404102
 H         -37.791912     -105.564056      -30.994980
 H         -35.859100     -102.032265      -32.087788
 H         -35.083988     -103.049774      -33.177910
 H         -36.610344     -104.558937      -29.317356
 H         -37.000031     -102.873650      -29.911423
 H         -34.721245     -103.389572      -30.533270
 H         -35.265388     -104.854897      -31.387716
