20
 generated by VMD
 C         -47.576454     -138.202469      -45.790565
 N         -47.194359     -137.950790      -46.877949
 H         -50.538651     -137.438828      -44.822433
 H         -47.869209     -138.115616      -44.778778
 C         -51.364929     -138.148239      -44.955944
 C         -51.420753     -138.893936      -46.285423
 C         -52.662739     -137.883774      -44.102261
 C         -52.653965     -139.857101      -46.420498
 C         -53.660717     -139.003052      -44.262291
 C         -53.878078     -139.242645      -45.748943
 H         -50.627216     -139.569717      -46.399609
 H         -51.459579     -138.118484      -47.054573
 H         -52.256462     -137.910004      -43.075130
 H         -53.083439     -136.859573      -44.278641
 H         -52.512913     -140.741776      -45.874855
 H         -52.708584     -140.090073      -47.487701
 H         -54.698761     -138.687851      -44.005775
 H         -53.410675     -139.867966      -43.704182
 H         -54.820259     -139.968506      -45.949501
 H         -54.152699     -138.338089      -46.299305
