20
 generated by VMD
 C         -40.201309     -104.722969      -36.040192
 N         -39.467648     -104.678841      -36.923553
 H         -40.385685     -107.784569      -35.158520
 H         -40.700836     -104.670555      -35.072578
 C         -40.015877     -107.965652      -34.137527
 C         -38.842873     -107.037064      -33.663765
 C         -40.035805     -109.400871      -33.497185
 C         -38.777191     -107.018127      -32.221462
 C         -39.964729     -109.312019      -32.008640
 C         -38.787052     -108.426735      -31.579319
 H         -39.192871     -106.061577      -33.939068
 H         -37.908524     -107.373039      -34.019508
 H         -40.946686     -109.802025      -33.865566
 H         -39.201668     -110.001450      -33.849339
 H         -39.563747     -106.348198      -31.869675
 H         -37.916702     -106.458076      -31.932669
 H         -39.887218     -110.286942      -31.583408
 H         -40.952721     -108.931107      -31.676321
 H         -38.849899     -108.244865      -30.448982
 H         -37.808102     -108.890381      -31.694481
