20
 generated by VMD
 C         -39.915607     -107.432152      -37.814777
 N         -39.108307     -106.584671      -37.836338
 H         -39.142483     -108.592964      -35.163418
 H         -40.709785     -108.104530      -37.492336
 C         -39.741009     -109.114738      -34.347763
 C         -38.927387     -110.083084      -33.479614
 C         -41.283215     -108.948654      -34.204380
 C         -39.788651     -110.966125      -32.457710
 C         -41.790878     -109.675049      -32.946728
 C         -41.173508     -111.095276      -32.836151
 H         -38.106995     -109.625023      -32.878956
 H         -38.548725     -110.898956      -34.042885
 H         -41.534569     -107.903397      -34.132725
 H         -41.883247     -109.399612      -35.034901
 H         -39.653767     -110.438637      -31.466135
 H         -39.487144     -112.088470      -32.266994
 H         -42.877712     -109.669060      -33.035835
 H         -41.684586     -109.143959      -32.064571
 H         -41.592701     -111.511452      -31.930668
 H         -41.325062     -111.720078      -33.671368
