20
 generated by VMD
 C         -40.513737     -117.221458      -34.516655
 N         -39.480560     -116.770775      -34.819576
 H         -41.679115     -116.390205      -37.352699
 H         -41.535633     -117.651817      -34.217846
 C         -42.688961     -116.495720      -37.722675
 C         -42.973595     -116.327095      -39.195484
 C         -43.703392     -116.115646      -36.702682
 C         -44.318893     -116.975975      -39.526661
 C         -44.916904     -116.975487      -36.969406
 C         -45.416840     -116.700218      -38.456730
 H         -42.136375     -116.779106      -39.764618
 H         -42.985271     -115.290527      -39.581638
 H         -43.443703     -116.158386      -35.643299
 H         -43.973724     -114.992912      -36.828804
 H         -44.296165     -118.020058      -39.696922
 H         -44.725895     -116.484589      -40.398495
 H         -45.734470     -116.638832      -36.319187
 H         -44.584717     -117.973801      -36.572838
 H         -46.319439     -117.404266      -38.824627
 H         -45.665958     -115.573242      -38.497810
