20
 generated by VMD
 C         -22.912588      -53.011463      -12.559194
 N         -22.779221      -52.575962      -13.599736
 H         -20.440014      -54.543129      -14.275268
 H         -22.966169      -53.610313      -11.723537
 C         -19.450068      -54.308468      -13.979673
 C         -18.993910      -52.823204      -14.076776
 C         -18.501762      -55.415260      -13.579157
 C         -17.657513      -52.567211      -13.344094
 C         -17.131643      -55.002228      -12.967412
 C         -16.642845      -53.708549      -13.602345
 H         -19.718390      -52.130646      -13.695929
 H         -18.876492      -52.606781      -15.118982
 H         -19.034334      -55.964806      -12.808967
 H         -18.216103      -56.047153      -14.391078
 H         -17.867622      -52.519722      -12.280789
 H         -17.226196      -51.610996      -13.643757
 H         -16.414017      -55.822578      -13.234076
 H         -17.123869      -54.913651      -11.898157
 H         -15.602692      -53.561371      -13.231208
 H         -16.568975      -53.874302      -14.736960
