20
 generated by VMD
 C         -70.613609     -196.680252      -65.821228
 N         -69.459373     -196.523132      -65.968636
 H         -73.758881     -195.314133      -64.750122
 H         -71.705521     -196.791473      -65.774910
 C         -73.477257     -195.075470      -65.805084
 C         -72.680122     -193.786545      -65.877472
 C         -74.473877     -195.384171      -66.811829
 C         -72.611656     -193.174286      -67.330276
 C         -73.872467     -195.145813      -68.201759
 C         -73.522346     -193.725052      -68.455238
 H         -71.603920     -193.963669      -65.430008
 H         -72.972504     -193.133484      -65.105141
 H         -74.862640     -196.390915      -66.780563
 H         -75.284569     -194.673843      -66.752312
 H         -71.604477     -193.188705      -67.738304
 H         -72.750603     -192.092606      -67.293800
 H         -74.501877     -195.454803      -69.002007
 H         -72.978951     -195.839630      -68.326981
 H         -73.053604     -193.756439      -69.372925
 H         -74.570282     -193.211807      -68.719322
