20
 generated by VMD
 C         -47.461666     -139.263229      -45.720089
 N         -46.750694     -138.698837      -46.527485
 H         -50.797520     -138.983368      -44.629101
 H         -48.196674     -139.577866      -45.008282
 C         -51.749088     -138.883820      -45.133656
 C         -51.840359     -139.258240      -46.594955
 C         -53.021839     -138.475983      -44.475117
 C         -53.015743     -140.174713      -46.914673
 C         -54.106197     -139.609253      -44.746029
 C         -54.356796     -139.813766      -46.204403
 H         -50.815445     -139.622238      -46.852818
 H         -51.989792     -138.350082      -47.221321
 H         -52.794373     -138.421539      -43.466339
 H         -53.369663     -137.539993      -44.787415
 H         -52.644691     -141.183212      -46.464123
 H         -53.185287     -140.395981      -48.013218
 H         -54.983875     -139.273422      -44.128365
 H         -53.912777     -140.608566      -44.441547
 H         -55.159061     -140.569046      -46.396805
 H         -54.586872     -138.801880      -46.623463
