20
 generated by VMD
 C         -48.723396     -126.410439      -38.690723
 N         -49.379917     -127.371689      -38.505676
 H         -46.322132     -123.544067      -38.433105
 H         -48.175014     -125.508530      -38.615944
 C         -45.674610     -123.585258      -39.355297
 C         -44.451092     -124.410866      -39.635326
 C         -45.686188     -122.319008      -40.047585
 C         -44.078571     -124.556351      -41.065693
 C         -45.349319     -122.348206      -41.593315
 C         -44.115101     -123.276352      -41.874355
 H         -44.623482     -125.506027      -39.450996
 H         -43.609997     -123.972778      -39.177616
 H         -46.698170     -121.914452      -39.986267
 H         -45.004646     -121.532158      -39.642342
 H         -44.626270     -125.390747      -41.560402
 H         -43.019653     -124.968086      -41.090252
 H         -45.010262     -121.256790      -41.698082
 H         -46.336487     -122.500450      -42.210274
 H         -44.165619     -123.480095      -42.928093
 H         -43.215988     -122.736954      -41.651058
