20
 generated by VMD
 C         -19.485355      -60.834194      -17.539160
 N         -20.092691      -59.878494      -17.744062
 H         -22.472237      -60.230976      -16.104313
 H         -18.774147      -61.635036      -17.502537
 C         -22.989058      -61.222252      -16.228785
 C         -23.254841      -61.760796      -17.610605
 C         -23.667822      -61.878227      -15.039521
 C         -22.934559      -63.286842      -17.562777
 C         -23.175459      -63.283882      -14.978228
 C         -23.361193      -64.059059      -16.302660
 H         -22.879801      -61.242111      -18.477354
 H         -24.305929      -61.646221      -17.764725
 H         -23.329557      -61.407570      -14.183958
 H         -24.733130      -61.769085      -15.112636
 H         -21.808554      -63.203072      -17.615126
 H         -23.243370      -63.818897      -18.523527
 H         -23.832100      -63.814167      -14.250299
 H         -22.086382      -63.347931      -14.725412
 H         -22.647635      -64.851929      -16.211590
 H         -24.374899      -64.427551      -16.325956
