20
 generated by VMD
 C         -15.124122      -46.001198       -6.882366
 N         -14.662060      -46.923038       -6.426760
 H         -15.560067      -44.397003       -9.159328
 H         -14.557107      -44.535950      -10.704717
 C         -15.595325      -44.571861      -10.243194
 C         -16.437498      -43.455582      -10.934453
 C         -16.228031      -45.915455      -10.505362
 C         -16.643929      -43.881630      -12.363551
 C         -16.393944      -46.411072      -11.919055
 C         -17.181601      -45.317932      -12.569422
 H         -15.853097      -42.545822      -10.879557
 H         -17.372471      -43.413239      -10.341127
 H         -15.568686      -46.655540      -10.066766
 H         -17.220585      -45.956211       -9.999665
 H         -15.713310      -43.860794      -12.941780
 H         -17.362497      -43.160862      -12.796777
 H         -16.883453      -47.358959      -12.008053
 H         -15.347188      -46.484974      -12.412051
 H         -17.303276      -45.463058      -13.652495
 H         -18.281187      -45.365585      -12.215878
