20
 generated by VMD
 C         -20.376373      -57.265148      -16.775620
 N         -19.360783      -56.651489      -16.846722
 H         -22.445770      -60.008034      -17.828096
 H         -21.116430      -58.071941      -16.618025
 C         -22.429737      -60.421562      -16.751226
 C         -23.685839      -60.780056      -16.010103
 C         -21.204136      -61.157837      -16.705887
 C         -23.274153      -61.074173      -14.561342
 C         -21.074862      -62.141254      -15.521911
 C         -22.047760      -62.012032      -14.411897
 H         -24.321720      -61.597511      -16.422142
 H         -24.307909      -59.856918      -16.080278
 H         -20.987349      -61.680103      -17.636850
 H         -20.381516      -60.449650      -16.562500
 H         -24.107706      -61.474754      -13.958992
 H         -23.106361      -60.142605      -14.096813
 H         -20.116467      -62.140488      -15.024796
 H         -21.302374      -63.096676      -16.027115
 H         -22.333736      -62.978817      -13.976798
 H         -21.522911      -61.701385      -13.495298
