20
 generated by VMD
 C         -50.159168     -131.750641      -46.780376
 N         -50.107567     -132.000534      -47.884094
 H         -48.757469     -131.537674      -43.832558
 H         -50.070660     -131.459442      -45.740078
 C         -48.846741     -132.284622      -43.095669
 C         -49.575825     -133.467911      -43.460129
 C         -48.687595     -131.892273      -41.649632
 C         -49.156662     -134.697983      -42.680038
 C         -48.181164     -133.112900      -40.874420
 C         -48.869465     -134.424835      -41.154350
 H         -49.460300     -133.817535      -44.424068
 H         -50.695160     -133.285294      -43.356270
 H         -47.965755     -131.104797      -41.366085
 H         -49.701431     -131.594650      -41.221375
 H         -48.214844     -135.103745      -43.065849
 H         -49.832138     -135.556870      -42.746582
 H         -48.147259     -132.873459      -39.802525
 H         -47.097599     -133.206314      -41.096195
 H         -48.237629     -135.189667      -40.583706
 H         -49.833645     -134.215591      -40.803066
