20
 generated by VMD
 C         -79.462059     -205.005814      -70.860840
 N         -80.547569     -205.376938      -70.880257
 H         -76.946198     -203.254532      -69.421791
 H         -78.490715     -204.580261      -71.081902
 C         -75.924637     -203.100708      -69.471939
 C         -75.500221     -201.893250      -70.215401
 C         -74.945007     -204.269608      -69.168060
 C         -73.986832     -201.697433      -70.472778
 C         -73.572357     -203.662949      -68.923080
 C         -73.196289     -202.963287      -70.263107
 H         -75.829567     -200.992416      -69.731598
 H         -76.049889     -201.816650      -71.176132
 H         -75.291595     -204.852448      -68.273651
 H         -75.033737     -205.067841      -69.959938
 H         -73.557632     -200.864044      -69.923180
 H         -73.866920     -201.345459      -71.478157
 H         -72.846840     -204.516769      -68.760124
 H         -73.370201     -203.056671      -68.107948
 H         -72.142143     -202.791763      -70.327843
 H         -73.396942     -203.632294      -71.136871
