20
 generated by VMD
 C         -74.375824     -200.432526      -66.306198
 N         -73.331963     -200.928909      -66.312546
 H         -76.404671     -198.608612      -68.602608
 H         -75.323540     -199.967911      -66.325661
 C         -75.421631     -198.210297      -68.673485
 C         -74.900017     -197.237183      -67.651741
 C         -74.507355     -199.069122      -69.618561
 C         -73.520416     -196.548599      -68.050156
 C         -73.191124     -198.417358      -69.913727
 C         -72.643867     -197.536591      -68.741783
 H         -74.876495     -197.866043      -66.790253
 H         -75.668678     -196.487686      -67.373039
 H         -74.318840     -200.031876      -69.058281
 H         -75.051964     -199.437866      -70.552010
 H         -73.154991     -195.975937      -67.200310
 H         -73.791679     -195.716721      -68.778946
 H         -73.194702     -197.761353      -70.804245
 H         -72.426033     -199.306015      -70.051506
 H         -72.299591     -198.228546      -68.031494
 H         -71.693512     -196.872101      -69.089622
