20
 generated by VMD
 C         -67.104729     -189.665009      -66.720161
 N         -66.624001     -189.103485      -67.612450
 H         -69.365944     -189.715546      -64.634178
 H         -67.588181     -190.295929      -66.038353
 C         -70.214661     -189.360428      -64.113869
 C         -71.255959     -190.456482      -63.875183
 C         -70.441101     -187.933167      -63.619270
 C         -72.580833     -189.844589      -64.114693
 C         -71.859283     -187.467224      -63.521374
 C         -72.780228     -188.630859      -63.282269
 H         -71.155876     -190.873520      -62.882771
 H         -71.001869     -191.395554      -64.386330
 H         -69.982864     -187.947800      -62.676331
 H         -69.893410     -187.359314      -64.445404
 H         -73.436569     -190.518417      -64.012634
 H         -72.624863     -189.472855      -65.139481
 H         -71.938492     -187.054321      -64.542091
 H         -72.090683     -186.748611      -62.724789
 H         -73.027412     -188.925659      -62.295139
 H         -73.739578     -188.175446      -63.600403
