20
 generated by VMD
 C         -67.151375     -189.650314      -66.733109
 N         -66.640556     -189.106918      -67.593445
 H         -69.261673     -189.607559      -64.539177
 H         -67.621338     -190.380798      -66.048035
 C         -70.242958     -189.309830      -64.109093
 C         -71.183525     -190.448792      -63.851936
 C         -70.430725     -187.945511      -63.587639
 C         -72.555557     -189.875961      -64.145264
 C         -71.827095     -187.439926      -63.525383
 C         -72.796310     -188.597382      -63.288918
 H         -71.199402     -190.831833      -62.802177
 H         -70.899284     -191.299072      -64.540855
 H         -69.885498     -187.935257      -62.572975
 H         -69.938530     -187.347382      -64.361862
 H         -73.408195     -190.586670      -64.067688
 H         -72.639153     -189.596695      -65.204109
 H         -72.177055     -187.037674      -64.495445
 H         -72.009651     -186.655945      -62.784405
 H         -72.940460     -188.949020      -62.221016
 H         -73.803772     -188.173019      -63.651508
