20
 generated by VMD
 C         -63.161297     -173.245224      -55.663872
 N         -63.052948     -173.967697      -54.814453
 H         -61.717609     -171.849686      -58.153748
 H         -63.147358     -172.556076      -56.517094
 C         -62.553753     -171.171265      -58.363445
 C         -62.505386     -169.654800      -57.959679
 C         -63.767742     -171.628952      -59.115219
 C         -63.750851     -168.833069      -58.417400
 C         -64.803421     -170.653030      -59.429871
 C         -65.055931     -169.582092      -58.397388
 H         -61.638306     -169.177368      -58.385654
 H         -62.404892     -169.710495      -56.792656
 H         -63.378094     -171.908859      -60.118484
 H         -64.241623     -172.423782      -58.472816
 H         -63.560852     -168.447678      -59.535027
 H         -63.851673     -167.920990      -57.793007
 H         -65.768967     -171.124741      -59.411777
 H         -64.606163     -170.235611      -60.439583
 H         -65.890877     -168.953018      -58.622478
 H         -65.223770     -170.128418      -57.479420
