20
 generated by VMD
 C         -39.442486     -116.518532      -34.991608
 N         -39.440754     -115.491028      -34.416725
 H         -41.272739     -115.554390      -37.607872
 H         -39.646984     -117.383575      -35.555328
 C         -42.391819     -115.792801      -37.627422
 C         -42.999100     -115.884041      -38.960506
 C         -43.284042     -115.763321      -36.419739
 C         -44.465912     -116.362358      -39.101299
 C         -44.663227     -116.517311      -36.596722
 C         -45.420876     -116.193466      -37.895153
 H         -42.283180     -116.468056      -39.600391
 H         -42.927929     -114.797279      -39.329082
 H         -42.881626     -116.208786      -35.557407
 H         -43.634373     -114.782845      -36.275284
 H         -44.571522     -117.371536      -39.478535
 H         -45.046947     -115.728813      -39.829956
 H         -45.300327     -116.310982      -35.710846
 H         -44.444523     -117.653923      -36.633930
 H         -46.370716     -116.801666      -37.940506
 H         -45.755539     -115.084625      -37.930275
