20
 generated by VMD
 C         -23.162600      -52.973194      -12.654003
 N         -22.847567      -52.603710      -13.703618
 H         -20.650595      -54.552559      -13.847670
 H         -23.465212      -53.753628      -11.744448
 C         -19.558489      -54.411392      -13.740085
 C         -18.975401      -53.065697      -14.207353
 C         -18.485203      -55.462902      -13.826446
 C         -17.722841      -52.749969      -13.376451
 C         -17.093559      -55.210976      -13.128564
 C         -16.558414      -53.789585      -13.359842
 H         -19.735847      -52.251072      -14.022209
 H         -18.657064      -53.114513      -15.308729
 H         -18.884586      -56.401325      -13.452527
 H         -18.168449      -55.675884      -14.905811
 H         -18.028709      -52.470844      -12.338181
 H         -17.273432      -51.866985      -13.841186
 H         -16.381247      -55.940907      -13.424723
 H         -17.163202      -55.300823      -11.992300
 H         -15.856993      -53.519966      -12.602174
 H         -16.061918      -53.736107      -14.311511
