20
 generated by VMD
 C         -50.828831     -129.801666      -46.173389
 N         -50.838345     -130.306732      -45.159931
 H         -47.999706     -131.680237      -44.289722
 H         -50.705235     -129.066528      -46.923870
 C         -47.935951     -131.692551      -43.245117
 C         -48.225883     -133.087662      -42.507175
 C         -47.951878     -130.345444      -42.609734
 C         -47.646175     -133.031097      -41.123699
 C         -47.335136     -130.488770      -41.216805
 C         -47.860962     -131.625534      -40.388077
 H         -47.825760     -133.931870      -43.162960
 H         -49.261555     -133.278381      -42.413071
 H         -47.310425     -129.739517      -43.199635
 H         -48.989468     -129.911575      -42.556164
 H         -46.579464     -133.073334      -41.097267
 H         -47.976349     -133.729797      -40.371845
 H         -47.433357     -129.426575      -40.877045
 H         -46.318920     -130.628464      -41.458992
 H         -47.308353     -131.706314      -39.478470
 H         -48.943783     -131.434387      -40.059612
