20
 generated by VMD
 C         -40.042168     -100.280701      -30.374008
 N         -40.714993     -100.349701      -31.297167
 H         -37.397617     -102.221939      -30.553572
 H         -39.306431     -100.480850      -29.565466
 C         -36.599560     -101.494949      -30.913502
 C         -36.682571     -100.977051      -32.336998
 C         -35.346367     -101.281013      -30.109707
 C         -36.087692      -99.495117      -32.301216
 C         -34.931122      -99.758881      -29.965988
 C         -34.800667      -99.281090      -31.406191
 H         -37.771225     -100.939293      -32.699528
 H         -36.083565     -101.648590      -32.986168
 H         -35.440990     -101.692497      -29.069344
 H         -34.454380     -101.859833      -30.502794
 H         -36.864601      -98.826706      -31.839924
 H         -35.898582      -99.171600      -33.302738
 H         -34.045036      -99.608994      -29.457172
 H         -35.697968      -99.131966      -29.417797
 H         -34.443321      -98.158119      -31.466488
 H         -33.936558      -99.833488      -31.858471
