20
 generated by VMD
 C         -25.795307      -71.282974      -17.118172
 N         -25.504211      -71.438545      -15.999396
 H         -23.942657      -68.529472      -18.752621
 H         -25.798319      -71.146713      -18.253054
 C         -24.467607      -69.091743      -19.516796
 C         -23.770988      -69.971291      -20.546909
 C         -25.778870      -68.437752      -19.974594
 C         -24.873516      -70.912918      -21.250900
 C         -26.829334      -69.339890      -20.707964
 C         -26.234549      -70.128403      -21.819859
 H         -23.103750      -70.633476      -19.834988
 H         -23.150745      -69.269302      -21.061300
 H         -26.399433      -67.996193      -19.141575
 H         -25.640244      -67.505249      -20.560562
 H         -25.275858      -71.547745      -20.501738
 H         -24.354628      -71.546928      -22.014484
 H         -27.582747      -68.659775      -21.034998
 H         -27.301859      -70.060654      -20.092756
 H         -27.052031      -70.839653      -22.081781
 H         -25.960316      -69.693573      -22.758579
