20
 generated by VMD
 C         -47.674747     -138.106430      -45.873314
 N         -47.242321     -137.840530      -46.878662
 H         -50.325901     -137.613525      -44.617859
 H         -48.042957     -138.074661      -44.845032
 C         -51.257164     -138.139374      -44.769592
 C         -51.377647     -138.729736      -46.221668
 C         -52.527477     -137.698410      -44.144390
 C         -52.575607     -139.724625      -46.370392
 C         -53.646053     -138.909592      -44.264046
 C         -53.873699     -139.340576      -45.670528
 H         -50.422924     -139.296173      -46.483723
 H         -51.645908     -137.885956      -46.946789
 H         -52.372066     -137.665085      -43.082699
 H         -52.922100     -136.815933      -44.663826
 H         -52.090031     -140.507721      -45.781555
 H         -52.846748     -140.026001      -47.378284
 H         -54.549191     -138.429947      -43.866955
 H         -53.194599     -139.797852      -43.676586
 H         -54.494846     -140.113632      -45.687241
 H         -54.406635     -138.543793      -46.138905
