20
 generated by VMD
 C         -27.613937      -86.444633      -26.238358
 N         -28.432831      -86.617271      -27.003300
 H         -30.995661      -86.529381      -25.277517
 H         -26.781584      -86.396278      -25.615732
 C         -31.900953      -87.068062      -25.580439
 C         -32.875744      -87.417046      -24.502075
 C         -32.020638      -87.346062      -27.050060
 C         -34.287613      -87.482491      -24.968056
 C         -33.493706      -87.533195      -27.492022
 C         -34.443287      -88.174950      -26.362806
 H         -32.696320      -86.705711      -23.671928
 H         -32.620548      -88.381645      -24.117569
 H         -31.557701      -86.477211      -27.614925
 H         -31.466282      -88.258598      -27.239117
 H         -34.820202      -86.469460      -24.983732
 H         -34.923058      -88.030777      -24.158125
 H         -33.526192      -88.151306      -28.364334
 H         -34.011990      -86.608574      -27.850208
 H         -35.475521      -88.055695      -26.650566
 H         -34.191509      -89.174156      -26.079037
