20
 generated by VMD
 C         -59.468792     -158.216339      -57.089935
 N         -58.503063     -158.557632      -57.626331
 H         -60.303017     -158.195358      -53.317493
 H         -60.331806     -157.866226      -56.511543
 C         -59.969315     -159.155701      -52.943123
 C         -58.616917     -159.129730      -52.453880
 C         -60.737122     -160.358978      -53.217770
 C         -58.281971     -160.107742      -51.388309
 C         -60.345146     -161.437378      -52.197739
 C         -58.816334     -161.498093      -51.748421
 H         -58.408291     -158.097687      -52.054951
 H         -57.955460     -159.069885      -53.301739
 H         -61.786766     -160.260239      -53.105679
 H         -60.539631     -160.648605      -54.232162
 H         -58.674946     -159.818619      -50.347240
 H         -57.263092     -160.169495      -51.226589
 H         -60.765961     -162.468460      -52.417236
 H         -60.900230     -161.164276      -51.310265
 H         -58.825794     -162.108963      -50.841125
 H         -58.256996     -161.967102      -52.511875
