20
 generated by VMD
 C         -49.849892     -127.726303      -39.129223
 N         -49.431446     -126.667099      -38.851738
 H         -47.162891     -125.803764      -40.500931
 H         -50.283741     -128.687088      -39.284607
 C         -46.242306     -125.292313      -40.734440
 C         -44.925491     -125.947502      -40.537010
 C         -46.540455     -123.859840      -41.250408
 C         -43.761414     -124.921104      -40.859489
 C         -45.169933     -123.166298      -41.461647
 C         -44.077351     -123.494469      -40.562119
 H         -44.867229     -126.737366      -41.272411
 H         -44.934277     -126.322723      -39.579716
 H         -47.140953     -123.824356      -42.241737
 H         -47.220600     -123.524979      -40.480015
 H         -43.646423     -125.005119      -41.927494
 H         -42.803734     -125.172417      -40.455719
 H         -45.548687     -122.115273      -41.473743
 H         -44.891331     -123.369911      -42.526779
 H         -43.210430     -122.914124      -40.879303
 H         -44.284706     -123.298264      -39.464554
