20
 generated by VMD
 C         -73.885315     -201.488800      -65.421326
 N         -72.908638     -201.027817      -65.870850
 H         -75.183266     -198.115524      -66.949081
 H         -74.698593     -202.156113      -65.234718
 C         -74.805099     -197.702438      -67.867737
 C         -74.843941     -196.205322      -68.042709
 C         -74.421356     -198.583435      -69.090820
 C         -73.492111     -195.673401      -68.471535
 C         -73.553757     -197.712006      -69.993347
 C         -72.678345     -196.723602      -69.149902
 H         -75.211990     -195.662369      -67.234985
 H         -75.598274     -195.927780      -68.779564
 H         -73.889717     -199.548126      -68.822243
 H         -75.430946     -198.973297      -69.483620
 H         -72.907578     -195.414978      -67.608902
 H         -73.470337     -194.730881      -69.037468
 H         -74.188126     -197.176605      -70.659355
 H         -72.848389     -198.425720      -70.448677
 H         -72.026985     -197.213058      -68.412514
 H         -71.986641     -196.281265      -69.946136
