20
 generated by VMD
 C         -11.405988      -25.933958       -0.858018
 N         -11.145503      -24.925770       -0.439197
 H          -7.541837      -26.014675       -0.980428
 H          -8.946978      -25.557383       -1.959888
 C          -7.868908      -25.496300       -1.938611
 C          -7.424318      -26.367136       -3.138731
 C          -7.362253      -24.047365       -1.992565
 C          -7.650586      -25.751745       -4.542860
 C          -7.588231      -23.439983       -3.358661
 C          -7.029589      -24.253998       -4.545946
 H          -7.884550      -27.352362       -3.140298
 H          -6.412252      -26.588717       -3.018983
 H          -7.879353      -23.422262       -1.254841
 H          -6.268305      -23.985567       -1.735945
 H          -8.732620      -25.611315       -4.686901
 H          -7.350103      -26.468733       -5.324094
 H          -7.223077      -22.389719       -3.445614
 H          -8.692142      -23.470520       -3.409602
 H          -7.319517      -23.816702       -5.521482
 H          -5.926839      -24.299538       -4.342965
