20
 generated by VMD
 C         -47.673344     -139.504028      -45.921906
 N         -46.712303     -139.035263      -46.230846
 H         -50.941563     -138.482697      -44.830315
 H         -48.613811     -140.041138      -45.707993
 C         -51.839245     -138.970840      -45.237347
 C         -51.926311     -139.343887      -46.751217
 C         -53.085224     -138.810196      -44.418884
 C         -53.002346     -140.456985      -47.046654
 C         -54.286411     -139.730957      -44.885872
 C         -54.319084     -139.870544      -46.334339
 H         -50.943302     -139.586533      -47.244530
 H         -52.202667     -138.444870      -47.320839
 H         -53.053967     -138.812317      -43.378822
 H         -53.249962     -137.819565      -44.734600
 H         -52.605370     -141.466278      -46.673874
 H         -53.091919     -140.564041      -48.131943
 H         -55.280350     -139.472794      -44.504978
 H         -54.119030     -140.630783      -44.367798
 H         -55.104107     -140.651413      -46.633106
 H         -54.590446     -138.758682      -46.740986
