20
 generated by VMD
 C         -11.983962      -41.361992       -7.634146
 N         -11.732992      -40.667126       -6.820202
 H         -13.782806      -40.823421       -8.385025
 H         -15.045669      -40.150383       -9.373121
 C         -14.759779      -41.087032       -8.951479
 C         -15.903090      -41.649101       -8.122801
 C         -14.203918      -41.983318      -10.037632
 C         -16.992594      -42.224228       -8.997743
 C         -15.382980      -42.462963      -10.910211
 C         -16.535761      -43.074619      -10.154592
 H         -16.261057      -40.857929       -7.435205
 H         -15.470469      -42.351376       -7.430867
 H         -13.484918      -41.444038      -10.692083
 H         -13.684429      -42.801094       -9.644760
 H         -17.614458      -41.455860       -9.432266
 H         -17.608688      -42.839073       -8.368466
 H         -15.087438      -43.192928      -11.587955
 H         -15.784837      -41.583664      -11.521489
 H         -17.422131      -43.162880      -10.824739
 H         -16.235394      -44.070087       -9.865822
