20
 generated by VMD
 C         -50.813633     -129.688156      -46.048416
 N         -50.863560     -130.408569      -45.190525
 H         -48.261677     -131.682770      -44.262287
 H         -50.925793     -129.089111      -46.970551
 C         -47.928883     -131.587830      -43.195663
 C         -48.330082     -132.793274      -42.469353
 C         -47.962299     -130.249985      -42.548904
 C         -47.485062     -132.861877      -41.191040
 C         -47.218048     -130.370331      -41.175220
 C         -47.680725     -131.533478      -40.261284
 H         -48.069489     -133.598465      -43.101650
 H         -49.491116     -132.820297      -42.261295
 H         -47.418938     -129.495590      -43.234901
 H         -48.935806     -129.821106      -42.340172
 H         -46.388657     -132.931870      -41.269154
 H         -47.703915     -133.763550      -40.589340
 H         -47.212074     -129.400696      -40.692631
 H         -46.076218     -130.497238      -41.394413
 H         -47.019859     -131.774200      -39.390301
 H         -48.766788     -131.464386      -40.024841
