20
 generated by VMD
 C         -74.977165     -201.609207      -66.634727
 N         -75.058372     -201.675919      -65.472137
 H         -76.311348     -199.358215      -68.711884
 H         -74.824272     -201.548981      -67.736366
 C         -75.381638     -198.952942      -69.041557
 C         -74.918076     -197.726074      -68.307068
 C         -74.310532     -199.570587      -69.931702
 C         -73.435883     -197.703934      -68.007790
 C         -73.163879     -198.537399      -70.348511
 C         -72.613884     -197.607040      -69.308304
 H         -75.628510     -197.595779      -67.351349
 H         -75.099686     -196.837631      -68.983002
 H         -73.875542     -200.447708      -69.393295
 H         -74.720032     -200.008896      -70.790680
 H         -73.124588     -198.580856      -67.342979
 H         -73.202698     -196.820419      -67.404388
 H         -73.538986     -197.862244      -71.188782
 H         -72.296089     -199.042130      -70.933273
 H         -71.520309     -197.837967      -68.916878
 H         -72.703987     -196.689102      -69.794197
