20
 generated by VMD
 C         -64.942688     -175.536285      -55.821815
 N         -64.376442     -176.444000      -56.321053
 H         -64.356247     -174.419296      -58.382511
 H         -65.483932     -174.766647      -55.313942
 C         -64.659081     -173.512100      -58.965042
 C         -65.405708     -172.285278      -58.335712
 C         -64.014587     -173.327866      -60.414371
 C         -64.557076     -170.983749      -58.457512
 C         -63.069622     -172.075974      -60.252678
 C         -63.896877     -170.840744      -59.776970
 H         -65.616043     -172.474472      -57.296688
 H         -66.393555     -172.035873      -58.895363
 H         -63.310211     -174.214142      -60.688110
 H         -64.832947     -173.126709      -61.136097
 H         -63.775280     -171.017548      -57.670258
 H         -65.157860     -170.082550      -58.293911
 H         -62.666420     -171.678452      -61.169949
 H         -62.245991     -172.435898      -59.580692
 H         -63.228813     -170.018112      -59.644394
 H         -64.654549     -170.631119      -60.539581
