20
 generated by VMD
 C          -2.217622      -16.564177        2.486325
 N          -1.571492      -17.475843        2.558175
 H          -4.952451      -16.405142        0.475247
 H          -4.637537      -17.670456       -0.597814
 C          -5.479573      -17.171392       -0.063215
 C          -6.378473      -16.422359       -1.030807
 C          -6.233488      -18.128954        0.817949
 C          -7.210009      -17.325457       -1.900575
 C          -7.102820      -19.087671       -0.041997
 C          -7.943549      -18.374435       -1.104838
 H          -5.695618      -15.781642       -1.633307
 H          -7.045203      -15.794185       -0.451859
 H          -5.403328      -18.703867        1.355322
 H          -6.915416      -17.538427        1.597785
 H          -6.563976      -17.849993       -2.565704
 H          -7.897314      -16.784220       -2.488390
 H          -7.705161      -19.728907        0.604811
 H          -6.296938      -19.689800       -0.521367
 H          -8.410225      -19.098223       -1.788609
 H          -8.825233      -17.855671       -0.666456
