20
 generated by VMD
 C         -70.089272     -182.906586      -65.959518
 N         -71.118744     -183.316940      -65.646317
 H         -67.846298     -182.723328      -63.080086
 H         -69.163704     -182.485718      -66.192223
 C         -67.519958     -182.420578      -62.115910
 C         -67.657539     -183.355072      -61.010345
 C         -67.007057     -181.084015      -61.898975
 C         -66.657562     -183.098328      -59.903996
 C         -66.197838     -180.762177      -60.619610
 C         -66.737373     -181.608566      -59.455582
 H         -67.415840     -184.394714      -61.406975
 H         -68.689583     -183.346573      -60.572548
 H         -66.388359     -180.695740      -62.672592
 H         -67.987595     -180.539871      -61.798225
 H         -65.668419     -183.380310      -60.220589
 H         -66.702003     -183.727600      -59.063469
 H         -66.214218     -179.715820      -60.341404
 H         -65.124443     -181.029007      -60.869049
 H         -66.047882     -181.508575      -58.673622
 H         -67.805901     -181.452698      -59.190632
