20
 generated by VMD
 C         -67.485275     -179.957611      -58.303314
 N         -68.511681     -180.145981      -58.789856
 H         -67.103790     -176.251389      -59.746002
 H         -66.511169     -179.813660      -57.928997
 C         -66.182281     -176.027451      -60.123775
 C         -66.016891     -175.206863      -61.311092
 C         -65.051392     -176.615112      -59.445667
 C         -64.866241     -174.232178      -61.089001
 C         -63.917381     -175.585678      -59.233192
 C         -63.605625     -174.976379      -60.599960
 H         -66.999779     -174.654175      -61.571129
 H         -66.030205     -175.881927      -62.130497
 H         -65.099510     -177.133896      -58.478672
 H         -64.577530     -177.376587      -60.037781
 H         -65.184502     -173.431747      -60.443554
 H         -64.581329     -173.613785      -61.988167
 H         -63.095165     -176.069550      -58.714169
 H         -64.329430     -174.769104      -58.640564
 H         -62.709934     -174.346481      -60.661655
 H         -63.336468     -175.797607      -61.231598
