20
 generated by VMD
 C         -11.096194      -33.167118       -8.600530
 N         -10.722801      -33.939041       -9.274318
 H         -12.910917      -34.149143       -6.630155
 H         -13.039778      -34.853603       -5.010786
 C         -12.956059      -35.086853       -6.089748
 C         -11.679812      -35.977211       -6.220281
 C         -14.148004      -35.841038       -6.610977
 C         -11.758352      -37.361462       -5.577052
 C         -14.304444      -37.148502       -5.819685
 C         -13.040042      -38.061569       -5.921683
 H         -10.800416      -35.452682       -5.867495
 H         -11.499045      -36.095985       -7.286533
 H         -15.114117      -35.275810       -6.639204
 H         -13.967890      -36.119705       -7.642056
 H         -11.487903      -37.263340       -4.502125
 H         -10.904980      -37.912216       -5.932731
 H         -15.089992      -37.683575       -6.381406
 H         -14.696927      -37.034832       -4.844843
 H         -13.272923      -38.890171       -5.268271
 H         -12.986027      -38.504284       -6.931477
