20
 generated by VMD
 C         -49.244659     -132.992233      -46.991959
 N         -48.295670     -133.100967      -47.738476
 H         -48.512630     -134.403458      -44.327995
 H         -50.148399     -133.327621      -46.479034
 C         -49.410637     -134.846619      -43.971077
 C         -49.690323     -136.267090      -44.402378
 C         -50.429146     -134.150711      -43.037594
 C         -50.206974     -137.157776      -43.177750
 C         -50.990650     -135.054001      -41.909374
 C         -51.356396     -136.456223      -42.499813
 H         -48.801079     -136.854767      -44.726147
 H         -50.395466     -136.331070      -45.155510
 H         -49.929005     -133.288300      -42.460274
 H         -51.274601     -133.747849      -43.572277
 H         -49.494652     -137.508606      -42.387413
 H         -50.558369     -138.145462      -43.609455
 H         -51.778923     -134.550781      -41.306664
 H         -50.095642     -135.055634      -41.248520
 H         -51.572998     -137.052734      -41.536396
 H         -52.184071     -136.319168      -43.280594
