20
 generated by VMD
 C         -49.962063     -127.647041      -39.157520
 N         -49.262733     -126.715088      -39.064648
 H         -47.132896     -126.042679      -41.066227
 H         -50.511089     -128.561218      -39.243019
 C         -46.248371     -125.511475      -41.115849
 C         -44.970184     -126.008553      -40.498947
 C         -46.576591     -124.023140      -41.190666
 C         -43.830967     -125.110085      -40.736885
 C         -45.322113     -123.233925      -41.460114
 C         -44.107952     -123.594681      -40.522678
 H         -44.803761     -126.917519      -40.984356
 H         -45.143814     -126.163460      -39.448296
 H         -47.307938     -123.987617      -42.100563
 H         -47.120155     -123.696182      -40.334259
 H         -43.594067     -125.181503      -41.800797
 H         -42.978188     -125.464935      -40.175690
 H         -45.634285     -122.185959      -41.312569
 H         -45.217216     -123.399673      -42.536049
 H         -43.152977     -123.097229      -40.847321
 H         -44.339619     -123.334633      -39.483566
