20
 generated by VMD
 C         -22.725462      -54.785847      -16.352606
 N         -23.681850      -55.338604      -15.905269
 H         -19.075920      -54.837521      -15.480640
 H         -21.758600      -54.590866      -16.503878
 C         -19.178896      -55.703644      -14.806574
 C         -19.482130      -55.577404      -13.353959
 C         -18.667440      -56.962517      -15.343283
 C         -19.703575      -56.793785      -12.527763
 C         -19.456749      -58.179840      -14.762061
 C         -19.447647      -58.152706      -13.169363
 H         -20.303160      -54.868664      -13.145741
 H         -18.669382      -55.034328      -12.905200
 H         -18.789848      -56.787464      -16.471106
 H         -17.603659      -57.124638      -15.319038
 H         -20.757250      -56.760761      -12.165454
 H         -19.125862      -56.654541      -11.630924
 H         -18.932020      -59.123306      -15.095330
 H         -20.520014      -58.125206      -15.042280
 H         -20.102219      -58.930775      -12.703352
 H         -18.451246      -58.436100      -12.889796
