20
 generated by VMD
 C         -47.989101     -134.027481      -47.567627
 N         -48.090565     -133.352692      -48.587711
 H         -49.612865     -134.167328      -44.131912
 H         -47.806347     -134.573120      -46.647964
 C         -50.086323     -134.968231      -43.659180
 C         -50.234009     -136.151978      -44.579262
 C         -51.037949     -134.777374      -42.589439
 C         -50.556282     -137.451935      -43.706207
 C         -51.410267     -136.065491      -41.810276
 C         -51.712799     -137.253235      -42.723282
 H         -49.282810     -136.359421      -45.165966
 H         -51.049725     -136.142990      -45.299759
 H         -50.696873     -134.128983      -41.788548
 H         -52.021278     -134.313690      -43.042957
 H         -49.661156     -137.952591      -43.193748
 H         -50.933994     -138.217911      -44.348083
 H         -52.114960     -135.751968      -41.050552
 H         -50.610363     -136.305283      -41.178699
 H         -51.663860     -138.057999      -42.075001
 H         -52.618889     -136.963928      -43.367638
