20
 generated by VMD
 C         -22.110802      -52.983696      -12.553380
 N         -23.096109      -52.471771      -12.865661
 H         -20.300468      -53.962200      -14.171725
 H         -20.964016      -53.556946      -12.301103
 C         -19.326195      -53.736637      -13.607781
 C         -18.874393      -52.327503      -13.689272
 C         -18.431257      -54.968334      -13.475291
 C         -17.407795      -52.372211      -14.273059
 C         -17.251722      -54.423355      -12.688051
 C         -16.499334      -53.243729      -13.377410
 H         -18.921930      -51.859703      -12.697068
 H         -19.494703      -51.801041      -14.491018
 H         -18.971275      -55.811451      -12.935055
 H         -18.245068      -55.335819      -14.477193
 H         -17.039259      -51.329060      -14.296088
 H         -17.368631      -52.714848      -15.347638
 H         -16.480675      -55.270664      -12.472569
 H         -17.565552      -54.094780      -11.712254
 H         -16.077536      -52.624256      -12.600008
 H         -15.706765      -53.579048      -13.982087
