20
 generated by VMD
 C         -69.744850     -183.241043      -65.232361
 N         -69.884514     -182.373047      -66.016479
 H         -67.569839     -184.914856      -62.848858
 H         -69.593376     -183.991837      -64.508888
 C         -67.938301     -184.115784      -62.224503
 C         -67.976501     -184.401535      -60.733078
 C         -67.828247     -182.637955      -62.576458
 C         -67.085953     -183.436234      -59.934406
 C         -67.033287     -181.769913      -61.650082
 C         -67.503441     -182.046066      -60.294781
 H         -67.563065     -185.410843      -60.640568
 H         -68.987556     -184.183151      -60.372196
 H         -67.581154     -182.688614      -63.681507
 H         -68.757874     -182.083801      -62.581036
 H         -66.030617     -183.547180      -60.290554
 H         -67.092262     -183.739014      -58.801170
 H         -67.294495     -180.730804      -61.973572
 H         -65.909927     -181.765182      -61.683449
 H         -66.864059     -181.422791      -59.565800
 H         -68.543678     -181.916748      -60.163277
