20
 generated by VMD
 C         -67.884964     -178.198120      -57.878185
 N         -67.057457     -178.626648      -57.197819
 H         -64.858131     -176.163300      -58.606770
 H         -68.648758     -177.887985      -58.551559
 C         -64.773758     -175.585388      -59.582890
 C         -65.925087     -174.605301      -59.797058
 C         -63.381115     -175.347870      -60.146641
 C         -65.421272     -173.156021      -59.811440
 C         -62.957684     -173.783920      -59.967922
 C         -64.073204     -172.874893      -60.484924
 H         -66.609390     -174.784882      -58.987511
 H         -66.572891     -174.820984      -60.674789
 H         -62.751434     -175.921722      -59.505093
 H         -63.333187     -175.730713      -61.231544
 H         -65.324837     -172.849396      -58.784454
 H         -66.219193     -172.525894      -60.139988
 H         -62.105198     -173.603119      -60.665337
 H         -62.496906     -173.610580      -58.912949
 H         -63.784096     -171.854340      -60.200951
 H         -64.311333     -172.791931      -61.503155
