20
 generated by VMD
 C          -2.356484       -8.591618        0.235051
 N          -1.678090       -8.940332       -0.623556
 H          -2.781823       -9.882223        2.858888
 H          -1.800751      -11.154903        3.619484
 C          -2.805765      -10.986229        3.195822
 C          -3.158069      -11.933346        2.016780
 C          -3.957870      -11.038771        4.155200
 C          -3.315452      -13.367338        2.458046
 C          -4.192759      -12.463725        4.739335
 C          -4.280431      -13.448644        3.582010
 H          -2.367602      -11.877638        1.264441
 H          -4.079558      -11.552152        1.488837
 H          -3.784226      -10.405862        5.001290
 H          -4.918647      -10.786886        3.667208
 H          -2.310104      -13.621725        2.848909
 H          -3.459481      -14.038793        1.607654
 H          -5.106193      -12.556705        5.277629
 H          -3.350731      -12.720418        5.381009
 H          -4.253242      -14.464512        4.024499
 H          -5.293851      -13.274518        3.204242
