20
 generated by VMD
 C         -12.369750      -27.576630       -4.607879
 N         -13.131938      -28.104698       -5.250875
 H         -10.847653      -30.485878       -2.786922
 H         -10.936284      -29.096504       -3.849616
 C         -10.289037      -29.831062       -3.354035
 C          -9.613989      -30.469234       -4.568635
 C          -9.300951      -29.133389       -2.471184
 C          -8.692862      -29.495577       -5.275630
 C          -8.364745      -28.226147       -3.195293
 C          -7.680359      -28.861170       -4.404781
 H         -10.311654      -30.798044       -5.314401
 H          -9.006529      -31.298880       -4.188747
 H          -9.809255      -28.585363       -1.618661
 H          -8.773803      -29.949450       -1.976445
 H          -9.316050      -28.722330       -5.677847
 H          -8.219683      -30.122795       -6.021571
 H          -7.556338      -27.847052       -2.586463
 H          -8.904377      -27.343481       -3.604338
 H          -7.147805      -28.047976       -4.993556
 H          -6.986272      -29.569983       -3.982121
