20
 generated by VMD
 C         -50.492249     -145.074921      -45.170616
 N         -50.372299     -145.393463      -44.072994
 H         -52.965618     -143.485718      -46.037182
 H         -50.445057     -144.818954      -46.200642
 C         -53.436329     -143.114883      -46.927784
 C         -52.593056     -143.267731      -48.084267
 C         -54.752254     -142.342163      -46.924793
 C         -53.348625     -143.351990      -49.446243
 C         -55.470860     -142.484482      -48.339298
 C         -54.466831     -142.267822      -49.497421
 H         -52.017937     -144.146988      -48.033192
 H         -51.735607     -142.536362      -48.158695
 H         -55.460613     -142.873840      -46.235577
 H         -54.486038     -141.214401      -46.804012
 H         -53.746544     -144.332428      -49.718468
 H         -52.575100     -143.071152      -50.143024
 H         -56.353256     -141.908539      -48.525940
 H         -55.962330     -143.504868      -48.313694
 H         -54.934994     -142.262527      -50.494347
 H         -54.175190     -141.212372      -49.424969
