20
 generated by VMD
 C         -20.622608      -64.565117      -17.159105
 N         -20.134678      -65.040543      -16.213514
 H         -23.997250      -63.587364      -17.636744
 H         -21.171169      -64.381363      -18.082930
 C         -24.545746      -64.457916      -17.985258
 C         -24.677019      -64.863541      -19.409164
 C         -24.979580      -65.429420      -16.948965
 C         -24.502737      -66.362091      -19.732666
 C         -24.710392      -66.850716      -17.388321
 C         -25.461615      -67.152878      -18.758366
 H         -23.827463      -64.320251      -20.001238
 H         -25.702168      -64.577354      -19.789986
 H         -24.390167      -65.205101      -16.076063
 H         -26.100653      -65.223022      -16.770182
 H         -23.544363      -66.779793      -19.483202
 H         -24.696304      -66.615448      -20.748755
 H         -25.110880      -67.539093      -16.587536
 H         -23.623423      -67.011108      -17.404037
 H         -25.595886      -68.266190      -19.028196
 H         -26.467690      -66.720062      -18.908640
