20
 generated by VMD
 C         -22.637295      -54.852539      -16.227747
 N         -23.644844      -55.314690      -15.954961
 H         -19.010567      -54.705002      -15.153532
 H         -21.867512      -54.284630      -16.483765
 C         -19.302958      -55.674232      -14.834265
 C         -19.475611      -55.497654      -13.348645
 C         -18.682199      -56.917164      -15.396750
 C         -19.649813      -56.758087      -12.521064
 C         -19.490309      -58.161034      -14.726327
 C         -19.382442      -58.158005      -13.146255
 H         -20.319870      -54.791573      -13.193720
 H         -18.566824      -54.997467      -13.031075
 H         -18.889225      -57.077538      -16.481741
 H         -17.660995      -56.934475      -15.114257
 H         -20.705521      -56.774281      -12.186723
 H         -19.013821      -56.702339      -11.634192
 H         -19.105469      -59.100185      -15.166490
 H         -20.546131      -58.250599      -15.092900
 H         -20.156187      -58.854763      -12.770358
 H         -18.416203      -58.552433      -12.882358
