20
 generated by VMD
 C         -57.849926     -167.922348      -55.214447
 N         -56.782082     -168.301773      -54.927029
 H         -61.102200     -166.403320      -55.713932
 H         -58.807590     -167.543823      -55.509361
 C         -62.155647     -166.433273      -56.011082
 C         -62.526779     -167.364090      -57.147861
 C         -62.928104     -165.308960      -55.503201
 C         -64.024445     -167.407272      -57.360306
 C         -64.438644     -165.587769      -55.816658
 C         -64.743683     -165.991394      -57.299667
 H         -62.035740     -168.329269      -56.871414
 H         -62.010536     -166.963013      -58.101250
 H         -62.791290     -165.228043      -54.436012
 H         -62.671940     -164.393707      -55.969612
 H         -64.435791     -167.960342      -56.555729
 H         -64.135857     -167.951645      -58.290913
 H         -65.115715     -164.573166      -55.710625
 H         -64.845779     -166.354141      -55.078739
 H         -65.750252     -166.193909      -57.686867
 H         -64.314407     -165.298157      -58.079777
