20
 generated by VMD
 C         -34.078720      -97.190720      -26.393936
 N         -34.815899      -97.174042      -25.513151
 H         -35.223530      -94.481552      -27.487539
 H         -33.387722      -96.986481      -27.266191
 C         -35.155785      -94.093620      -28.501549
 C         -35.994610      -94.774986      -29.486765
 C         -33.829613      -93.585739      -28.974380
 C         -35.966923      -94.197708      -30.938152
 C         -33.755520      -93.138947      -30.366888
 C         -34.497692      -94.117264      -31.360243
 H         -37.080578      -94.749451      -29.137278
 H         -35.728893      -95.840179      -29.619701
 H         -33.386189      -92.854218      -28.236572
 H         -33.251431      -94.536407      -28.857498
 H         -36.515141      -93.234604      -31.284502
 H         -36.372478      -94.974144      -31.570671
 H         -32.712833      -92.898956      -30.762362
 H         -34.132778      -92.112366      -30.262014
 H         -34.449390      -93.650017      -32.377426
 H         -33.920845      -95.144310      -31.365993
