20
 generated by VMD
 C         -68.079109     -179.486206      -58.735306
 N         -67.965416     -179.897293      -57.655769
 H         -66.667770     -176.411835      -59.430866
 H         -68.130074     -179.198715      -59.803181
 C         -65.689598     -175.844757      -59.825100
 C         -66.055092     -174.856796      -60.926796
 C         -64.295128     -176.303833      -59.541283
 C         -65.120079     -173.677490      -60.686035
 C         -63.333160     -175.067169      -59.494312
 C         -63.715023     -174.123230      -60.617634
 H         -67.167107     -174.406311      -61.086281
 H         -65.827484     -175.450272      -61.861298
 H         -64.259811     -176.825363      -58.538010
 H         -63.973766     -177.003723      -60.264347
 H         -65.377388     -173.092270      -59.703541
 H         -65.193871     -172.955978      -61.578831
 H         -62.302971     -175.362366      -59.485397
 H         -63.554073     -174.461899      -58.565628
 H         -63.026943     -173.212463      -60.675690
 H         -63.449593     -174.690323      -61.483204
