20
 generated by VMD
 C         -21.245790      -52.135468      -10.063526
 N         -21.442249      -53.010685      -10.721533
 H         -19.680048      -50.218899      -12.735651
 H         -21.143719      -50.893032       -9.694526
 C         -18.603580      -50.503960      -12.833243
 C         -18.221888      -51.830585      -13.380590
 C         -17.580006      -49.464981      -12.285910
 C         -16.944893      -51.578510      -14.199413
 C         -16.242540      -49.455944      -12.978856
 C         -15.898784      -50.886162      -13.300010
 H         -19.043453      -52.245846      -13.944640
 H         -18.067268      -52.550121      -12.545241
 H         -18.148605      -48.552364      -12.323412
 H         -17.361086      -49.757378      -11.249851
 H         -17.190058      -50.895794      -15.060569
 H         -16.599884      -52.567261      -14.541074
 H         -15.477624      -49.070122      -12.348538
 H         -16.287884      -48.786564      -13.909761
 H         -14.868565      -50.865849      -13.755174
 H         -15.755284      -51.472317      -12.308095
