20
 generated by VMD
 C         -40.808559     -119.327560      -34.955147
 N         -39.828693     -118.844810      -35.286545
 H         -43.606083     -117.031517      -36.267723
 H         -41.738136     -119.734268      -34.780338
 C         -44.043129     -117.204842      -37.224472
 C         -43.010849     -117.690201      -38.258709
 C         -45.335251     -116.566971      -37.624557
 C         -43.710213     -118.385284      -39.385517
 C         -45.974632     -117.435356      -38.754971
 C         -44.952682     -117.597328      -39.907326
 H         -42.292694     -118.418434      -37.896057
 H         -42.641071     -116.721123      -38.687813
 H         -46.068626     -116.565994      -36.711796
 H         -45.165119     -115.517754      -37.914745
 H         -44.029327     -119.393044      -38.903294
 H         -43.036251     -118.577721      -40.279488
 H         -46.867603     -117.000084      -39.254475
 H         -46.349163     -118.491447      -38.505276
 H         -45.489208     -118.311768      -40.693375
 H         -44.758244     -116.679390      -40.437241
