20
 generated by VMD
 C         -59.936550     -153.165787      -51.360508
 N         -60.434429     -152.161469      -51.580765
 H         -57.181347     -153.595581      -49.476398
 H         -59.446556     -154.096191      -51.136833
 C         -56.409634     -152.963364      -49.908779
 C         -54.927834     -153.192795      -49.560528
 C         -56.729168     -151.540649      -50.423458
 C         -53.841766     -152.577560      -50.404297
 C         -55.566399     -151.172501      -51.457890
 C         -54.195812     -151.116577      -50.762611
 H         -54.725845     -154.202469      -49.479309
 H         -54.955990     -152.784134      -48.558647
 H         -57.693954     -151.389053      -50.866539
 H         -56.630711     -150.800720      -49.578461
 H         -53.876797     -153.138382      -51.359062
 H         -52.865398     -152.600616      -49.899311
 H         -55.806137     -150.166199      -51.930775
 H         -55.720291     -151.825287      -52.293400
 H         -53.516697     -150.672226      -51.539135
 H         -54.280815     -150.508713      -49.898014
