20
 generated by VMD
 C         -12.676251      -30.181067       -8.237005
 N         -13.302935      -30.746099       -7.509321
 H         -11.201037      -30.433434       -5.187112
 H         -10.797709      -31.068127       -3.627929
 C         -10.901244      -31.445995       -4.639140
 C          -9.514241      -31.937275       -5.184972
 C         -12.009910      -32.393986       -4.771672
 C          -9.071564      -33.322380       -4.510163
 C         -11.614017      -33.706436       -4.103538
 C         -10.212204      -34.343575       -4.512283
 H          -8.705943      -31.307924       -4.967691
 H          -9.556355      -32.141567       -6.303622
 H         -12.891110      -32.014992       -4.238612
 H         -12.302670      -32.501087       -5.817757
 H          -8.745996      -33.115520       -3.499144
 H          -8.223120      -33.652901       -5.066338
 H         -12.436547      -34.390404       -4.432009
 H         -11.679541      -33.525665       -3.063433
 H          -9.975487      -35.244171       -3.865613
 H         -10.281386      -34.779491       -5.524015
