20
 generated by VMD
 C          -2.707924      -17.947533        2.721764
 N          -2.149437      -17.290150        2.017325
 H          -5.441204      -18.513742        1.064198
 H          -5.138937      -19.591724       -0.295105
 C          -5.793570      -18.775747        0.067171
 C          -5.771456      -17.621550       -0.842260
 C          -7.238985      -19.345387        0.369977
 C          -6.560170      -17.847733       -2.117097
 C          -8.128976      -19.515579       -0.910041
 C          -8.010281      -18.230560       -1.751201
 H          -4.821581      -17.331886       -1.218341
 H          -6.224280      -16.736700       -0.316263
 H          -7.164404      -20.327467        0.930066
 H          -7.758173      -18.503458        1.054770
 H          -6.040208      -18.643209       -2.725083
 H          -6.581672      -16.826145       -2.647198
 H          -9.136723      -19.553856       -0.574767
 H          -7.864482      -20.346140       -1.564653
 H          -8.506378      -18.483633       -2.711172
 H          -8.562976      -17.404427       -1.311242
