20
 generated by VMD
 C         -29.842304      -79.975662      -26.481180
 N         -30.030703      -78.989288      -25.886507
 H         -28.762259      -82.930214      -25.778786
 H         -29.597368      -80.901489      -26.835186
 C         -29.254250      -82.859406      -24.862408
 C         -28.823759      -81.909081      -23.725813
 C         -29.911453      -84.134392      -24.386126
 C         -29.927755      -81.688950      -22.645245
 C         -31.087450      -83.781265      -23.468075
 C         -30.719927      -83.021225      -22.222883
 H         -28.339417      -80.931183      -24.153353
 H         -27.945063      -82.437248      -23.351126
 H         -30.275450      -84.818756      -25.149689
 H         -29.162264      -84.735161      -23.924273
 H         -30.678669      -81.035706      -23.073816
 H         -29.521317      -81.270607      -21.615246
 H         -31.544384      -84.731049      -23.106102
 H         -31.783800      -83.289597      -24.086008
 H         -31.588659      -82.648415      -21.604206
 H         -30.267689      -83.615784      -21.482367
