20
 generated by VMD
 C         -30.714287      -93.864479      -25.988649
 N         -30.852116      -93.680695      -24.881531
 H         -33.647530      -93.045616      -26.956606
 H         -30.398853      -94.135666      -27.057903
 C         -34.164730      -92.682243      -27.886591
 C         -35.619133      -92.778526      -28.086586
 C         -33.415874      -92.287674      -29.082016
 C         -36.203018      -91.373245      -28.625221
 C         -33.958763      -90.945107      -29.661751
 C         -35.443504      -90.942337      -29.903120
 H         -36.238335      -92.958168      -27.259815
 H         -35.782303      -93.536369      -28.862843
 H         -32.402607      -92.135582      -28.780237
 H         -33.353401      -92.938118      -29.895555
 H         -36.145031      -90.627914      -27.791945
 H         -37.254223      -91.563385      -28.728666
 H         -33.522133      -90.806999      -30.624796
 H         -33.620201      -90.045319      -29.059513
 H         -35.906189      -89.963898      -30.128784
 H         -35.719418      -91.634079      -30.784195
