20
 generated by VMD
 C         -28.484928      -82.486298      -26.409981
 N         -27.712770      -82.768486      -27.189056
 H         -31.263048      -83.907379      -26.531166
 H         -29.153006      -82.191704      -25.522730
 C         -31.377438      -84.757751      -25.747684
 C         -30.843737      -84.439140      -24.426641
 C         -31.990601      -85.999329      -26.119452
 C         -31.852840      -84.938057      -23.305927
 C         -33.012604      -86.394707      -25.081703
 C         -32.373394      -86.373375      -23.586761
 H         -30.500078      -83.392212      -24.252836
 H         -29.897795      -85.038925      -24.300648
 H         -32.284836      -85.801140      -27.167953
 H         -31.325212      -86.806099      -26.003731
 H         -32.644962      -84.175758      -23.109686
 H         -31.247110      -84.870316      -22.304361
 H         -33.307037      -87.401360      -25.368341
 H         -33.902611      -85.774643      -25.108717
 H         -33.260853      -86.713387      -22.934166
 H         -31.640739      -87.123497      -23.599554
