20
 generated by VMD
 C         -12.761050      -27.643827       -2.618998
 N         -13.823678      -27.386740       -2.864393
 H         -10.553993      -27.461889       -3.599229
 H          -9.663752      -26.539085       -4.865002
 C          -9.551029      -27.275223       -4.003069
 C          -8.983948      -28.589848       -4.439537
 C          -8.707936      -26.552406       -2.873273
 C          -7.497450      -28.469948       -4.786961
 C          -7.205916      -26.440411       -3.207266
 C          -6.600128      -27.799259       -3.689325
 H          -9.349803      -28.911203       -5.469097
 H          -9.140358      -29.337866       -3.679050
 H          -9.243110      -25.591948       -2.776844
 H          -8.909148      -27.075743       -1.957926
 H          -7.371185      -28.004799       -5.756767
 H          -7.216502      -29.535490       -4.769300
 H          -6.763029      -26.183096       -2.263545
 H          -6.980137      -25.677916       -3.964433
 H          -5.585354      -27.578199       -4.139321
 H          -6.404868      -28.461288       -2.843327
