20
 generated by VMD
 C         -68.058914     -185.854996      -67.004181
 N         -68.318001     -184.940613      -67.652412
 H         -68.940910     -188.243546      -64.790932
 H         -67.722137     -186.669235      -66.466377
 C         -69.429924     -187.900360      -63.875546
 C         -68.976082     -186.545898      -63.296627
 C         -70.655212     -188.626251      -63.351395
 C         -69.426346     -186.206833      -61.869366
 C         -70.870468     -188.301193      -61.832363
 C         -70.805069     -186.760849      -61.564716
 H         -69.385078     -185.798752      -63.943657
 H         -67.930260     -186.295273      -63.491737
 H         -71.506081     -188.641586      -64.032631
 H         -70.408096     -189.662369      -63.422207
 H         -69.574997     -185.151871      -61.750359
 H         -68.614296     -186.620926      -61.209534
 H         -70.075554     -188.757492      -61.345184
 H         -71.837341     -188.589493      -61.486691
 H         -71.664352     -186.506393      -62.271751
 H         -71.042625     -186.506195      -60.473145
