20
 generated by VMD
 C         -45.240101     -123.022911      -35.436295
 N         -45.668297     -124.077797      -35.191853
 H         -44.931030     -122.256859      -38.200161
 H         -44.610435     -122.136223      -35.563381
 C         -44.794388     -121.633217      -39.082909
 C         -43.429863     -121.410179      -39.662468
 C         -45.980797     -120.746193      -39.576721
 C         -43.424995     -120.800797      -41.013508
 C         -45.733044     -120.159691      -40.910286
 C         -44.352722     -119.597443      -41.134583
 H         -42.812897     -122.275642      -39.683578
 H         -42.989498     -120.498283      -39.161461
 H         -46.914967     -121.240822      -39.703651
 H         -46.070339     -120.112259      -38.758385
 H         -43.943886     -121.617905      -41.645779
 H         -42.362038     -120.574188      -41.272926
 H         -46.519814     -119.331001      -41.064960
 H         -45.865772     -120.837204      -41.836075
 H         -44.286324     -119.143509      -42.128201
 H         -44.145985     -118.784645      -40.500275
