20
 generated by VMD
 C         -79.961464     -205.503433      -72.238388
 N         -80.021111     -206.668350      -72.283463
 H         -77.426003     -204.403900      -71.070236
 H         -79.666634     -204.469299      -72.276146
 C         -76.504257     -204.944534      -71.124916
 C         -75.309700     -204.097870      -71.345200
 C         -76.259743     -206.253464      -70.600540
 C         -74.603058     -203.910660      -69.977058
 C         -75.603409     -206.243408      -69.218018
 C         -74.460861     -205.250015      -69.313553
 H         -75.619347     -203.177979      -71.933090
 H         -74.633743     -204.632980      -71.997383
 H         -77.152199     -206.883286      -70.473099
 H         -75.589355     -206.713654      -71.286491
 H         -75.201530     -203.158752      -69.366928
 H         -73.726341     -203.391571      -70.274437
 H         -75.443558     -207.271851      -68.964188
 H         -76.204689     -205.895905      -68.438934
 H         -74.200714     -205.011200      -68.249702
 H         -73.571434     -205.759674      -69.708725
