20
 generated by VMD
 C         -17.369642      -48.115154       -6.967144
 N         -16.841637      -47.156948       -6.779579
 H         -16.648079      -48.488594      -10.430035
 H         -15.634411      -48.520798      -11.919343
 C         -16.371408      -47.959362      -11.355557
 C         -15.741482      -46.624428      -10.961440
 C         -17.573946      -47.861217      -12.274803
 C         -15.582915      -45.711906      -12.088533
 C         -17.337431      -47.075474      -13.558178
 C         -16.849737      -45.721970      -12.973889
 H         -14.758804      -46.795872      -10.430264
 H         -16.318838      -46.104435      -10.170205
 H         -17.967005      -48.909000      -12.476644
 H         -18.468626      -47.400097      -11.770681
 H         -14.744871      -46.060940      -12.717476
 H         -15.308637      -44.687981      -11.786103
 H         -18.261145      -46.935513      -14.048990
 H         -16.630520      -47.652115      -14.214938
 H         -16.648893      -45.028072      -13.777072
 H         -17.638075      -45.311386      -12.411613
