20
 generated by VMD
 C         -29.423378      -89.674995      -25.096537
 N         -29.260838      -88.877975      -25.940100
 H         -31.865875      -90.689934      -27.078516
 H         -29.382536      -90.345840      -24.227856
 C         -32.841854      -90.518478      -27.576448
 C         -34.062332      -90.854454      -26.814781
 C         -32.826416      -89.478729      -28.572184
 C         -34.708500      -89.557404      -26.265921
 C         -33.662189      -88.269257      -28.128185
 C         -34.954502      -88.498878      -27.382261
 H         -33.813545      -91.593407      -26.089083
 H         -34.664806      -91.290504      -27.509243
 H         -31.761452      -89.275406      -28.765930
 H         -33.374924      -89.761330      -29.475731
 H         -34.101902      -89.221329      -25.472050
 H         -35.634712      -89.796494      -25.722662
 H         -33.763245      -87.671890      -29.011913
 H         -33.103939      -87.634140      -27.465185
 H         -35.381214      -87.580666      -26.943207
 H         -35.635498      -89.163742      -28.037939
