20
 generated by VMD
 C         -11.243547      -32.567936       -8.825185
 N         -12.016466      -32.907562       -9.564957
 H         -11.959036      -33.848007       -6.460291
 H         -12.622152      -34.230698       -4.834420
 C         -12.281351      -34.672497       -5.793566
 C         -11.049222      -35.539196       -5.586749
 C         -13.452393      -35.265079       -6.506009
 C         -11.422659      -36.877190       -4.949913
 C         -13.821331      -36.503090       -5.693326
 C         -12.674285      -37.499161       -5.505489
 H         -10.242183      -35.084576       -4.989342
 H         -10.504214      -35.680019       -6.568449
 H         -14.336473      -34.610764       -6.529114
 H         -13.226415      -35.613262       -7.487161
 H         -11.544292      -36.651852       -3.869856
 H         -10.572149      -37.528244       -4.860008
 H         -14.720559      -37.031879       -6.022115
 H         -14.109461      -36.103046       -4.711449
 H         -13.008492      -38.379185       -4.934600
 H         -12.473988      -37.852043       -6.567132
