20
 generated by VMD
 C         -50.011513     -127.745026      -40.624706
 N         -50.939327     -128.041077      -41.287174
 H         -47.565613     -127.552925      -41.454807
 H         -49.311684     -127.444611      -39.855576
 C         -46.728271     -126.897690      -41.049019
 C         -45.702633     -127.398544      -40.162228
 C         -46.884464     -125.362305      -41.373272
 C         -44.381840     -126.818634      -40.675133
 C         -45.495823     -124.964867      -41.815025
 C         -44.346146     -125.366135      -40.927086
 H         -45.659786     -128.494324      -40.111809
 H         -45.722660     -127.088875      -39.059845
 H         -47.590309     -125.242836      -42.332127
 H         -47.092014     -124.818527      -40.504303
 H         -44.262199     -127.477150      -41.540707
 H         -43.500057     -127.050377      -40.046288
 H         -45.415653     -123.870399      -41.902279
 H         -45.108154     -125.453384      -42.757103
 H         -43.390419     -125.112480      -41.315483
 H         -44.469318     -124.850067      -39.982243
