20
 generated by VMD
 C         -70.615845     -196.750870      -65.261414
 N         -69.796562     -197.462555      -65.691925
 H         -73.535515     -196.351425      -65.499214
 H         -71.174004     -196.011459      -64.743912
 C         -73.636543     -195.732590      -66.341789
 C         -72.988808     -194.333557      -66.103439
 C         -74.255516     -196.052429      -67.632561
 C         -72.461639     -193.759277      -67.452927
 C         -74.698837     -194.665329      -68.327705
 C         -73.434959     -193.795151      -68.610878
 H         -72.158600     -194.340775      -65.425980
 H         -73.938995     -193.780701      -65.761620
 H         -73.543304     -196.573425      -68.176559
 H         -75.116417     -196.654922      -67.407120
 H         -71.613106     -194.308487      -67.794319
 H         -72.181015     -192.730118      -67.299263
 H         -75.461487     -194.018219      -67.810501
 H         -75.249664     -194.983292      -69.195625
 H         -72.915253     -194.450012      -69.425980
 H         -73.735443     -192.799057      -69.003395
