20
 generated by VMD
 C         -78.732765     -209.202530      -76.991341
 N         -79.716438     -208.646133      -76.857666
 H         -78.151299     -209.114548      -73.243515
 H         -77.813148     -209.626404      -77.005943
 C         -78.195068     -209.758896      -72.375458
 C         -76.974754     -210.044235      -71.414825
 C         -79.125648     -210.877594      -72.354118
 C         -77.350403     -210.598785      -70.044632
 C         -79.400574     -211.558807      -71.041328
 C         -78.149582     -211.868500      -70.249062
 H         -76.282745     -209.233978      -71.303177
 H         -76.299194     -210.760864      -71.941078
 H         -80.111588     -210.629501      -72.776848
 H         -78.605446     -211.496597      -73.002480
 H         -77.863022     -209.900604      -69.372192
 H         -76.409584     -210.830704      -69.522163
 H         -80.039124     -212.505035      -71.417465
 H         -79.993164     -210.995392      -70.369835
 H         -78.552856     -212.142517      -69.263901
 H         -77.494720     -212.693100      -70.512749
