20
 generated by VMD
 C         -56.500034     -150.141922      -47.639229
 N         -57.642380     -150.346786      -47.824123
 H         -53.510986     -148.325287      -47.275333
 H         -55.498604     -149.843918      -47.593147
 C         -53.715687     -147.980453      -48.343220
 C         -53.026592     -148.451706      -49.718285
 C         -54.430695     -146.655304      -48.625763
 C         -54.172401     -148.720261      -50.656090
 C         -55.571682     -146.843964      -49.658859
 C         -54.953663     -147.434280      -50.931271
 H         -52.461021     -149.310669      -49.630089
 H         -52.351807     -147.566467      -49.813339
 H         -54.713818     -146.127060      -47.744694
 H         -53.787922     -145.873108      -49.021019
 H         -54.744659     -149.470642      -50.156189
 H         -53.797577     -149.135117      -51.600502
 H         -56.043365     -145.862717      -50.029442
 H         -56.427067     -147.360992      -49.208794
 H         -55.704872     -147.580917      -51.707405
 H         -54.199638     -146.695145      -51.232307
