20
 generated by VMD
 C         -47.781654     -125.250862      -39.037422
 N         -47.629730     -126.271217      -38.542767
 H         -45.743252     -123.056931      -37.922489
 H         -47.853519     -124.308052      -39.499249
 C         -45.364773     -123.134735      -38.917297
 C         -44.357342     -124.099930      -39.359512
 C         -45.631626     -121.872353      -39.755836
 C         -44.691330     -124.437363      -40.869156
 C         -45.788441     -122.259506      -41.175728
 C         -44.694584     -123.212082      -41.720284
 H         -44.520565     -125.048103      -38.817265
 H         -43.381916     -123.683617      -39.102509
 H         -46.581989     -121.347923      -39.496899
 H         -44.866501     -121.159935      -39.590149
 H         -45.447762     -125.229973      -41.077358
 H         -43.748318     -124.942566      -41.064838
 H         -45.983509     -121.304825      -41.769611
 H         -46.743183     -122.867165      -41.294460
 H         -44.989346     -123.544662      -42.688217
 H         -43.687710     -122.772224      -41.805130
