20
 generated by VMD
 C         -50.161079     -127.744308      -40.613514
 N         -50.966930     -128.081818      -41.347935
 H         -47.264046     -127.700539      -41.555004
 H         -49.242249     -127.405739      -40.179173
 C         -46.749893     -126.849724      -41.029106
 C         -45.619564     -127.422318      -40.129070
 C         -46.860199     -125.447609      -41.339039
 C         -44.385872     -126.896400      -40.680973
 C         -45.483215     -124.990982      -41.850636
 C         -44.306526     -125.343414      -40.899750
 H         -45.668137     -128.494278      -40.207382
 H         -46.007095     -127.062408      -39.100674
 H         -47.674969     -125.300774      -42.195004
 H         -47.246471     -124.861832      -40.565315
 H         -44.144772     -127.225601      -41.695324
 H         -43.584305     -127.176262      -39.992008
 H         -45.447319     -123.900040      -42.054276
 H         -45.500717     -125.389458      -42.891235
 H         -43.326916     -125.180214      -41.420265
 H         -44.247700     -124.719765      -40.004341
