20
 generated by VMD
 C         -29.354628      -90.253197      -25.096144
 N         -29.044592      -91.344086      -25.306376
 H         -32.321930      -90.785912      -26.859064
 H         -29.698126      -89.325531      -24.758305
 C         -33.163242      -90.746826      -27.550127
 C         -34.353161      -91.531967      -27.555420
 C         -33.019131      -89.739136      -28.637091
 C         -35.588303      -90.611595      -27.366825
 C         -34.064907      -88.721542      -28.354841
 C         -35.506035      -89.223351      -28.227406
 H         -34.307011      -92.135391      -26.651655
 H         -34.490982      -92.161148      -28.524523
 H         -32.047535      -89.238297      -28.615355
 H         -33.230648      -90.233917      -29.607975
 H         -35.749969      -90.262581      -26.300997
 H         -36.438484      -91.198868      -27.603132
 H         -34.020573      -87.947037      -29.127924
 H         -33.680290      -88.302383      -27.408306
 H         -36.162781      -88.463112      -27.860861
 H         -35.759651      -89.747772      -29.133465
