20
 generated by VMD
 C         -22.708651      -68.410149      -16.630507
 N         -22.858408      -69.097122      -15.709524
 H         -24.018263      -65.900513      -18.673723
 H         -22.756453      -67.919090      -17.508120
 C         -24.574730      -66.688385      -19.231369
 C         -23.978315      -67.522011      -20.246344
 C         -26.020994      -66.898514      -18.968555
 C         -24.533276      -68.953346      -20.419704
 C         -26.593058      -68.315315      -19.274328
 C         -26.017412      -68.971138      -20.618568
 H         -22.830858      -67.620361      -19.992243
 H         -23.999918      -66.974602      -21.231363
 H         -25.914646      -66.831696      -17.891697
 H         -26.628120      -66.165443      -19.528511
 H         -24.273760      -69.507484      -19.527037
 H         -23.983480      -69.439377      -21.190889
 H         -27.669531      -68.423668      -19.297245
 H         -26.158064      -68.923630      -18.477810
 H         -26.564409      -69.954720      -20.650780
 H         -26.393894      -68.461792      -21.560751
