20
 generated by VMD
 C         -50.760857     -129.955521      -44.979866
 N         -51.594780     -129.233124      -45.141903
 H         -48.896145     -129.546219      -42.867733
 H         -50.125465     -130.771408      -44.657764
 C         -48.145706     -129.796875      -42.188461
 C         -47.974205     -131.153458      -41.550884
 C         -47.475311     -128.568985      -41.615047
 C         -46.459621     -131.373749      -41.174221
 C         -46.019829     -128.859543      -41.143158
 C         -46.013767     -130.145935      -40.376530
 H         -48.150375     -131.907684      -42.310814
 H         -48.677250     -131.323349      -40.760994
 H         -47.591228     -127.774521      -42.418449
 H         -48.114754     -128.207016      -40.865295
 H         -45.901985     -131.524780      -42.083950
 H         -46.639763     -132.241425      -40.615528
 H         -45.697552     -127.911850      -40.573833
 H         -45.284420     -128.938110      -41.969318
 H         -45.047218     -130.402527      -39.877163
 H         -46.676361     -129.917648      -39.514832
