20
 generated by VMD
 C         -69.771194     -183.239746      -65.622108
 N         -70.674698     -182.571609      -65.917831
 H         -68.079071     -183.948563      -63.086613
 H         -68.964661     -183.937714      -65.426262
 C         -67.733887     -183.473633      -62.168221
 C         -67.724815     -184.086487      -60.873611
 C         -67.443840     -182.011307      -62.375816
 C         -66.980972     -183.324661      -59.764923
 C         -66.706200     -181.273880      -61.215801
 C         -67.154305     -181.794937      -59.843922
 H         -67.130150     -185.033997      -61.013702
 H         -68.853699     -184.287033      -60.518860
 H         -66.781067     -182.045212      -63.284344
 H         -68.150146     -181.301208      -62.691730
 H         -65.971733     -183.587173      -59.891056
 H         -67.353203     -183.602676      -58.769764
 H         -66.711365     -180.180069      -61.476246
 H         -65.611298     -181.506119      -61.252422
 H         -66.548134     -181.334167      -59.050060
 H         -68.159622     -181.562317      -59.836910
