20
 generated by VMD
 C         -60.910145     -154.673798      -51.255001
 N         -61.048714     -154.109451      -52.302418
 H         -57.484215     -153.573395      -52.955654
 H         -60.917049     -155.168259      -50.265884
 C         -56.711990     -153.750671      -52.210026
 C         -57.238274     -153.941940      -50.796169
 C         -55.496021     -152.887009      -52.358761
 C         -56.053917     -154.201416      -49.859688
 C         -54.358471     -153.176407      -51.388683
 C         -54.824753     -153.308990      -50.024647
 H         -57.821087     -154.884018      -50.792057
 H         -57.929447     -153.128494      -50.380466
 H         -55.122208     -152.966660      -53.394550
 H         -55.843346     -151.830444      -52.157406
 H         -55.705853     -155.216293      -50.164848
 H         -56.542435     -154.353882      -48.827389
 H         -53.579151     -152.530090      -51.605820
 H         -53.914192     -154.229935      -51.614182
 H         -53.922741     -153.866577      -49.580410
 H         -55.052219     -152.396439      -49.522278
