20
 generated by VMD
 C         -40.669868     -104.019417      -37.029137
 N         -40.130898     -104.878883      -36.482933
 H         -40.535294     -106.705872      -34.282505
 H         -41.229431     -103.102921      -37.286991
 C         -39.756790     -107.136078      -33.676712
 C         -38.463848     -106.602524      -33.204475
 C         -39.823128     -108.585800      -33.452942
 C         -38.193565     -106.992737      -31.674000
 C         -39.666237     -108.936119      -32.002201
 C         -38.311798     -108.425850      -31.409370
 H         -38.289696     -105.489395      -33.175518
 H         -37.609322     -107.036346      -33.821640
 H         -40.765163     -108.973228      -33.622753
 H         -39.128345     -109.173882      -34.041637
 H         -38.826012     -106.338783      -30.967142
 H         -37.146599     -106.672440      -31.484915
 H         -39.747597     -109.970833      -31.778404
 H         -40.518776     -108.411034      -31.499132
 H         -38.197075     -108.807991      -30.332357
 H         -37.559895     -108.937225      -32.011955
