20
 generated by VMD
 C         -27.798912      -72.623497      -17.976599
 N         -28.102747      -73.561142      -17.327095
 H         -24.773140      -70.763840      -18.768736
 H         -27.733000      -71.730148      -18.505951
 C         -25.103556      -71.065048      -19.718206
 C         -24.340780      -72.187050      -20.507921
 C         -25.833691      -70.026161      -20.403965
 C         -25.260349      -72.825493      -21.731703
 C         -26.400846      -70.382401      -21.753649
 C         -25.647581      -71.542168      -22.597836
 H         -24.052189      -72.911575      -19.881142
 H         -23.485451      -71.771851      -21.019173
 H         -26.696678      -69.693695      -19.865145
 H         -25.174835      -69.169708      -20.541679
 H         -26.139122      -73.243454      -21.217426
 H         -24.714472      -73.558815      -22.327528
 H         -26.384750      -69.546951      -22.411734
 H         -27.456888      -70.469673      -21.676027
 H         -26.527086      -71.835861      -23.303453
 H         -24.773359      -71.168716      -23.179893
