20
 generated by VMD
 C         -38.429008      -99.030869      -27.183315
 N         -37.642254      -98.830612      -26.363995
 H         -36.829918      -97.143326      -29.717857
 H         -39.162258      -99.069138      -28.005285
 C         -36.019291      -96.679955      -30.276680
 C         -35.438694      -97.490265      -31.376753
 C         -35.055836      -95.987526      -29.315525
 C         -34.616390      -96.499458      -32.199524
 C         -34.073078      -95.079948      -30.150517
 C         -33.505634      -95.879913      -31.299664
 H         -36.225395      -97.889427      -31.978230
 H         -34.693562      -98.238785      -30.948292
 H         -35.563507      -95.394554      -28.574417
 H         -34.634209      -96.855873      -28.747612
 H         -35.193928      -95.799240      -32.747410
 H         -33.951859      -96.955551      -32.977856
 H         -33.332756      -94.720848      -29.393978
 H         -34.598980      -94.232094      -30.581350
 H         -32.745865      -95.284950      -31.725306
 H         -32.872738      -96.753716      -30.954576
