20
 generated by VMD
 C         -27.907633      -82.726067      -27.272480
 N         -27.174591      -83.410828      -26.651438
 H         -31.270180      -84.285477      -26.398918
 H         -28.525684      -82.194588      -27.979776
 C         -31.851023      -84.931282      -25.774519
 C         -31.396399      -84.979668      -24.436514
 C         -32.287045      -86.226067      -26.334629
 C         -32.503647      -85.596016      -23.444435
 C         -33.159611      -87.087364      -25.390114
 C         -32.829578      -87.077545      -23.929941
 H         -31.443792      -83.872231      -24.151701
 H         -30.370363      -85.240540      -24.190722
 H         -32.915344      -85.863899      -27.173548
 H         -31.482164      -86.840790      -26.747913
 H         -33.410809      -85.062607      -23.615147
 H         -32.109863      -85.586922      -22.406336
 H         -33.171181      -88.138420      -25.810856
 H         -34.163223      -86.682060      -25.641054
 H         -33.412117      -87.524185      -23.089354
 H         -31.888531      -87.549828      -23.839661
