20
 generated by VMD
 C         -50.731361     -129.821060      -45.268787
 N         -51.056744     -129.411743      -44.191166
 H         -49.100525     -129.096130      -42.398335
 H         -50.332817     -130.140030      -46.258736
 C         -48.201302     -129.342194      -41.867283
 C         -48.000591     -130.763504      -41.318989
 C         -47.439617     -128.157196      -41.434326
 C         -46.514194     -131.023682      -41.308304
 C         -45.948414     -128.455215      -41.194839
 C         -45.729126     -129.818954      -40.615803
 H         -48.476688     -131.453384      -42.058010
 H         -48.477001     -130.828659      -40.352047
 H         -47.537380     -127.334801      -42.128601
 H         -47.812855     -127.634644      -40.465508
 H         -46.004616     -131.228180      -42.302780
 H         -46.311890     -132.043594      -40.912792
 H         -45.431404     -127.658600      -40.612804
 H         -45.516739     -128.431107      -42.286083
 H         -44.699116     -130.080963      -40.692673
 H         -46.044212     -129.965195      -39.579655
