20
 generated by VMD
 C         -46.100384     -124.113518      -35.736233
 N         -46.684391     -125.066162      -35.513138
 H         -44.611801     -122.508331      -38.455048
 H         -45.696808     -123.183174      -36.008121
 C         -44.617638     -121.508636      -38.968891
 C         -43.246342     -121.458397      -39.763008
 C         -45.768250     -120.669258      -39.524258
 C         -43.440685     -121.547485      -41.282524
 C         -45.925018     -120.874260      -41.062542
 C         -44.547253     -120.646881      -41.801125
 H         -42.681129     -122.374588      -39.435909
 H         -42.699131     -120.503746      -39.549896
 H         -46.760651     -121.007820      -39.008945
 H         -45.692940     -119.604446      -39.319183
 H         -43.686600     -122.580696      -41.532650
 H         -42.541622     -121.378334      -41.784431
 H         -46.429279     -120.073143      -41.435875
 H         -46.482765     -121.799057      -41.226357
 H         -44.695587     -120.894882      -42.848442
 H         -44.361832     -119.516579      -41.902596
