20
 generated by VMD
 C         -38.166374     -114.798203      -35.408379
 N         -39.045532     -115.256248      -34.788921
 H         -41.398125     -115.113434      -36.717373
 H         -37.390244     -114.518097      -36.041550
 C         -42.449047     -115.398697      -36.991013
 C         -42.923141     -115.219704      -38.376389
 C         -43.449600     -115.130630      -35.938034
 C         -44.168255     -115.970917      -38.666687
 C         -44.738102     -115.871300      -36.208687
 C         -45.260448     -115.715881      -37.688656
 H         -42.086540     -115.560600      -38.965599
 H         -42.955181     -114.197426      -38.713081
 H         -43.154240     -115.581459      -35.039036
 H         -43.617371     -114.089096      -35.862690
 H         -43.891037     -117.010803      -38.776787
 H         -44.534237     -115.642517      -39.707268
 H         -45.564522     -115.531380      -35.648823
 H         -44.486980     -116.888611      -36.065052
 H         -46.139717     -116.405586      -37.720997
 H         -45.651268     -114.727974      -37.842186
