20
 generated by VMD
 C          -1.406741      -11.728971        1.556356
 N          -1.102139      -12.354210        0.699765
 H          -3.953035      -12.882141        0.576113
 H          -5.649523      -13.064219        0.885939
 C          -4.690706      -13.622472        0.964751
 C          -4.474526      -13.893973        2.404976
 C          -4.782881      -14.895280        0.194268
 C          -5.654808      -14.663743        2.935869
 C          -5.923303      -15.856212        0.695174
 C          -5.820818      -16.018698        2.229042
 H          -4.301877      -13.085801        3.032730
 H          -3.606065      -14.543831        2.604537
 H          -4.887608      -14.643709       -0.917475
 H          -3.847388      -15.537972        0.259055
 H          -6.609026      -14.117170        2.977603
 H          -5.468779      -14.900130        3.963389
 H          -5.938452      -16.811378        0.174114
 H          -6.859619      -15.316983        0.470739
 H          -6.747868      -16.508358        2.608748
 H          -4.974669      -16.680559        2.506963
