20
 generated by VMD
 C         -13.831129      -42.882595       -6.044824
 N         -12.896441      -43.377922       -6.368905
 H         -14.767162      -45.114304       -8.891778
 H         -14.273285      -43.860729       -9.954987
 C         -15.138435      -44.491646       -9.761595
 C         -16.358315      -43.687847       -9.453653
 C         -15.451159      -45.291054      -11.031714
 C         -16.961458      -42.779160      -10.578453
 C         -15.892372      -44.352180      -12.169967
 C         -17.149117      -43.495499      -11.911417
 H         -16.027313      -43.038818       -8.643189
 H         -17.180834      -44.275246       -9.018264
 H         -14.582495      -45.929604      -11.355307
 H         -16.240877      -46.100395      -10.764493
 H         -16.273426      -41.975834      -10.772593
 H         -17.895571      -42.309586      -10.276191
 H         -16.017752      -44.867100      -13.169380
 H         -15.115449      -43.611557      -12.306700
 H         -17.304350      -42.693481      -12.667247
 H         -18.014273      -44.180794      -11.933862
