20
 generated by VMD
 C         -20.034857      -56.190445      -16.817232
 N         -21.063696      -56.397350      -16.383661
 H         -21.917212      -59.476307      -17.224564
 H         -19.027199      -55.883446      -16.889088
 C         -22.370508      -60.140751      -16.540281
 C         -22.760195      -59.613068      -15.248857
 C         -21.906925      -61.546486      -16.635046
 C         -21.527838      -59.700066      -14.359038
 C         -20.953863      -61.874451      -15.568895
 C         -21.112633      -61.151207      -14.194357
 H         -23.614651      -60.119003      -14.795508
 H         -23.042236      -58.596779      -15.365981
 H         -22.756985      -62.221100      -16.441387
 H         -21.548466      -61.817646      -17.642344
 H         -21.816870      -59.288975      -13.349669
 H         -20.758968      -59.120235      -14.841611
 H         -19.957561      -61.534279      -15.935728
 H         -20.922768      -62.925674      -15.240309
 H         -21.900387      -61.679314      -13.591574
 H         -20.237322      -61.293091      -13.533097
