20
 generated by VMD
 C         -19.709648      -57.652912      -16.958292
 N         -19.232296      -58.167568      -17.864624
 H         -22.683319      -59.536507      -17.094112
 H         -20.080112      -57.089230      -16.142572
 C         -22.634184      -60.524891      -16.485043
 C         -23.887032      -61.375164      -16.568819
 C         -21.638863      -60.825142      -15.453119
 C         -23.817928      -62.805466      -16.190912
 C         -21.557436      -62.293381      -15.033149
 C         -22.855129      -63.133118      -15.045577
 H         -24.352682      -61.265343      -17.601656
 H         -24.578075      -60.905567      -15.742983
 H         -20.646078      -60.346931      -15.498056
 H         -22.085064      -60.319645      -14.578547
 H         -23.574341      -63.473476      -17.037043
 H         -24.816538      -63.060108      -15.854075
 H         -21.232336      -62.272678      -14.012573
 H         -20.781021      -62.727867      -15.675613
 H         -22.569250      -64.149750      -15.198905
 H         -23.298969      -63.049904      -14.025088
