20
 generated by VMD
 C         -22.119829      -53.069370      -12.528393
 N         -22.994205      -52.459934      -13.107088
 H         -20.225176      -54.149441      -14.575624
 H         -21.359283      -53.334442      -11.835553
 C         -19.416485      -53.830555      -13.912663
 C         -18.936119      -52.498909      -13.586159
 C         -18.556934      -54.979580      -13.394866
 C         -17.500126      -52.420464      -14.126291
 C         -17.165585      -54.531887      -12.752684
 C         -16.520603      -53.308876      -13.420601
 H         -19.075531      -52.292000      -12.522876
 H         -19.581572      -51.665802      -14.058975
 H         -19.030752      -55.598106      -12.561462
 H         -18.366245      -55.628941      -14.237643
 H         -17.169947      -51.380165      -13.962923
 H         -17.457031      -52.621094      -15.232810
 H         -16.447598      -55.435516      -12.878713
 H         -17.290968      -54.362247      -11.691486
 H         -15.923346      -52.702324      -12.756014
 H         -15.809953      -53.721939      -14.057318
