20
 generated by VMD
 C         -30.966415      -77.755241      -25.460489
 N         -31.643957      -77.860741      -26.418356
 H         -29.419033      -78.314529      -23.018810
 H         -30.173615      -77.814751      -24.719471
 C         -28.979923      -79.287224      -23.314913
 C         -27.493324      -79.523674      -23.417738
 C         -29.695402      -80.499634      -22.775829
 C         -26.885483      -79.887566      -22.020081
 C         -29.163153      -80.875595      -21.426943
 C         -27.637587      -81.231079      -21.549330
 H         -27.010784      -78.583984      -23.745390
 H         -27.175848      -80.182045      -24.231876
 H         -30.748566      -80.184929      -22.703398
 H         -29.621714      -81.338783      -23.453194
 H         -27.082729      -79.196350      -21.149008
 H         -25.848408      -80.049614      -22.182877
 H         -29.747267      -81.618774      -20.933641
 H         -29.224291      -80.139885      -20.617302
 H         -27.158213      -81.503914      -20.531876
 H         -27.443125      -82.143555      -22.225155
