20
 generated by VMD
 C         -78.965416     -207.394577      -75.308960
 N         -79.955490     -206.973801      -75.689766
 H         -77.738960     -209.009918      -73.364120
 H         -78.124863     -207.898163      -74.926582
 C         -77.608727     -209.103424      -72.338005
 C         -76.457954     -208.403885      -71.750999
 C         -78.232758     -210.089066      -71.504547
 C         -76.517616     -208.124405      -70.259399
 C         -78.212532     -209.943558      -69.978394
 C         -76.784752     -209.390518      -69.510277
 H         -76.098160     -207.512375      -72.309189
 H         -75.647903     -209.186554      -71.885246
 H         -79.229691     -210.382080      -71.879562
 H         -77.604805     -210.931366      -71.802475
 H         -77.146080     -207.324371      -69.944824
 H         -75.529007     -207.946655      -69.883751
 H         -78.662239     -210.806915      -69.515488
 H         -78.899300     -209.108322      -69.768692
 H         -76.774940     -209.166565      -68.412743
 H         -76.046967     -210.181076      -69.703255
