20
 generated by VMD
 C         -50.693687     -129.349335      -43.105499
 N         -50.298107     -128.309250      -42.719154
 H         -48.460270     -128.263046      -40.473698
 H         -50.824497     -130.294617      -43.617641
 C         -47.588875     -127.690765      -40.276859
 C         -46.390736     -128.630005      -39.973907
 C         -47.251953     -126.408051      -40.975239
 C         -45.304958     -128.619247      -41.084408
 C         -46.038296     -126.590546      -42.059536
 C         -44.823746     -127.323395      -41.564991
 H         -46.665081     -129.678329      -39.709431
 H         -45.977104     -128.192200      -39.078617
 H         -48.069611     -125.949799      -41.619282
 H         -46.810860     -125.771530      -40.203903
 H         -45.627197     -129.170929      -41.958736
 H         -44.458366     -129.145554      -40.704735
 H         -45.757561     -125.540932      -42.367683
 H         -46.553223     -126.937508      -43.002525
 H         -44.079540     -127.403557      -42.378323
 H         -44.353867     -126.729866      -40.792133
