20
 generated by VMD
 C         -44.658779     -122.392288      -36.048309
 N         -44.099922     -121.615524      -35.443214
 H         -45.316257     -122.758675      -39.363911
 H         -45.027603     -123.047478      -36.746265
 C         -44.914906     -121.742744      -39.534096
 C         -43.536961     -121.237572      -39.412823
 C         -45.973732     -120.757278      -39.375385
 C         -43.297306     -119.940430      -40.311474
 C         -45.768974     -119.400246      -40.170792
 C         -44.275322     -118.868759      -39.816021
 H         -42.843613     -122.100967      -39.799267
 H         -43.365101     -121.097641      -38.317993
 H         -46.880699     -121.220215      -39.695240
 H         -46.099701     -120.439217      -38.330730
 H         -43.439793     -120.068504      -41.349121
 H         -42.306206     -119.490753      -39.975174
 H         -46.390785     -118.671425      -39.736202
 H         -45.650249     -119.495178      -41.226280
 H         -44.004871     -117.917900      -40.342365
 H         -44.203911     -118.679390      -38.729446
