20
 generated by VMD
 C         -13.402367      -28.183588       -3.689914
 N         -14.001487      -27.380674       -4.200636
 H         -10.502598      -28.880711       -2.776006
 H         -10.235552      -27.588549       -3.845226
 C          -9.683812      -28.370289       -3.295584
 C          -9.169079      -29.490749       -4.302260
 C          -8.556776      -27.860674       -2.386018
 C          -8.103911      -28.817984       -5.230160
 C          -7.408902      -27.303116       -3.244929
 C          -6.938766      -28.216909       -4.326300
 H         -10.066985      -29.730036       -4.819598
 H          -8.688762      -30.308548       -3.672472
 H          -8.978269      -27.031881       -1.780995
 H          -8.149820      -28.622982       -1.719810
 H          -8.519564      -27.992823       -5.816998
 H          -7.611730      -29.590944       -5.807369
 H          -6.574191      -27.202370       -2.592274
 H          -7.753052      -26.308407       -3.652076
 H          -6.276173      -27.641838       -5.047681
 H          -6.278038      -29.022041       -3.984437
