20
 generated by VMD
 C         -70.253708     -182.710114      -63.685081
 N         -69.592873     -182.992310      -64.620560
 H         -68.927528     -180.211075      -61.930965
 H         -70.785004     -182.458054      -62.751656
 C         -67.858902     -180.362778      -61.574448
 C         -67.651405     -181.870224      -61.272251
 C         -67.055595     -179.376572      -60.753033
 C         -66.243126     -182.197510      -61.041042
 C         -65.692032     -179.855286      -60.603237
 C         -65.626671     -181.214401      -60.053238
 H         -67.947380     -182.523148      -62.099052
 H         -68.082909     -182.076202      -60.251064
 H         -66.983063     -178.457291      -61.314800
 H         -67.488426     -179.128265      -59.678711
 H         -65.643524     -182.312759      -62.086952
 H         -66.209702     -183.302750      -60.605770
 H         -65.184906     -179.164246      -59.927891
 H         -65.002327     -179.729462      -61.453850
 H         -64.626358     -181.432297      -59.862930
 H         -66.085083     -181.426498      -59.032864
