20
 generated by VMD
 C          -5.784904      -21.240400        1.868053
 N          -6.338832      -22.054680        1.326933
 H          -5.163735      -18.851852       -1.011599
 H          -5.839705      -19.997396        0.054964
 C          -5.872798      -19.652689       -0.989507
 C          -5.505155      -20.870226       -1.849435
 C          -7.203238      -18.954971       -1.378605
 C          -6.729716      -21.737238       -2.114296
 C          -8.366462      -19.874289       -1.709352
 C          -7.937518      -20.961477       -2.627070
 H          -4.740256      -21.439463       -1.240573
 H          -5.119926      -20.620481       -2.821615
 H          -7.566830      -18.255953       -0.551279
 H          -6.967659      -18.253996       -2.255701
 H          -7.052071      -22.406733       -1.297803
 H          -6.459902      -22.468649       -2.900086
 H          -9.201678      -19.315159       -2.184495
 H          -8.837853      -20.227829       -0.777184
 H          -8.789831      -21.635401       -2.850624
 H          -7.618831      -20.485125       -3.595171
