20
 generated by VMD
 C         -50.740570     -129.161423      -44.688026
 N         -50.951519     -130.216705      -44.277935
 H         -49.331654     -128.284241      -41.360950
 H         -50.688862     -128.084808      -44.884995
 C         -48.231495     -128.524445      -41.301907
 C         -47.832039     -130.018845      -41.038612
 C         -47.073971     -127.582993      -40.795113
 C         -46.403358     -130.379990      -41.374851
 C         -45.662773     -127.937393      -41.384289
 C         -45.332890     -129.372940      -41.024883
 H         -48.713421     -130.673141      -41.421436
 H         -47.968521     -130.058380      -39.987446
 H         -47.287693     -126.590782      -41.008255
 H         -47.099625     -127.688934      -39.669582
 H         -46.414604     -130.656433      -42.458416
 H         -46.005657     -131.344574      -41.099945
 H         -44.922173     -127.273407      -40.954018
 H         -45.750244     -127.630219      -42.341347
 H         -44.432243     -129.641388      -41.587566
 H         -45.112087     -129.467178      -39.952705
