20
 generated by VMD
 C         -72.372337     -199.294556      -65.088013
 N         -71.231247     -199.280350      -64.900482
 H         -71.522331     -196.324066      -66.780342
 H         -73.388046     -199.317017      -65.403740
 C         -72.376160     -195.904968      -67.328644
 C         -72.811302     -194.393509      -67.029961
 C         -72.846519     -196.454224      -68.687332
 C         -73.928642     -193.990128      -67.973953
 C         -74.309502     -196.205170      -69.036728
 C         -74.974442     -195.012955      -68.321533
 H         -71.900940     -193.815979      -66.894272
 H         -73.327179     -194.309494      -65.956062
 H         -72.194969     -196.108795      -69.419228
 H         -72.818390     -197.495087      -68.704498
 H         -73.459305     -193.799164      -69.012276
 H         -74.317657     -192.987625      -67.786987
 H         -74.956161     -197.073517      -68.923187
 H         -74.364769     -195.941956      -70.129181
 H         -75.835693     -194.729675      -68.843033
 H         -75.576973     -195.265564      -67.308548
