20
 generated by VMD
 C         -69.235481     -185.020798      -66.598549
 N         -69.324043     -185.189209      -67.765434
 H         -69.606071     -183.066406      -63.138660
 H         -69.035698     -184.894684      -65.582520
 C         -69.292923     -183.285095      -62.169197
 C         -69.785431     -184.533203      -61.475994
 C         -68.081985     -182.421387      -61.682465
 C         -68.636940     -185.488907      -61.115868
 C         -66.977348     -183.452759      -61.253952
 C         -67.489990     -184.754684      -60.512280
 H         -70.467453     -185.031281      -62.217426
 H         -70.358513     -184.206436      -60.588371
 H         -67.606590     -181.744263      -62.416752
 H         -68.431061     -181.853912      -60.780403
 H         -68.367577     -186.061340      -62.023163
 H         -69.101685     -186.158020      -60.392357
 H         -66.396492     -182.914749      -60.556904
 H         -66.345573     -183.835495      -62.073746
 H         -66.556610     -185.394669      -60.350197
 H         -67.682144     -184.382248      -59.554176
