20
 generated by VMD
 C         -21.117197      -52.038734      -10.864721
 N         -21.454725      -53.162022      -10.552073
 H         -19.715181      -49.866917      -13.262815
 H         -20.708076      -51.206810      -10.770733
 C         -18.851257      -50.545597      -12.995636
 C         -18.320990      -51.785355      -13.697171
 C         -17.838774      -49.964985      -12.110093
 C         -16.917917      -51.868599      -14.190564
 C         -16.462736      -49.906208      -12.794594
 C         -15.932774      -51.275772      -13.201516
 H         -18.937750      -51.991913      -14.607630
 H         -18.386492      -52.629848      -13.016991
 H         -18.185839      -49.033150      -11.681155
 H         -17.656031      -50.615219      -11.278080
 H         -16.814857      -51.276566      -15.091973
 H         -16.677135      -52.884342      -14.567079
 H         -15.657687      -49.376217      -12.198357
 H         -16.563044      -49.318203      -13.644082
 H         -14.898090      -51.193821      -13.624914
 H         -15.851883      -51.941212      -12.327582
