20
 generated by VMD
 C         -22.481625      -55.506092      -16.384956
 N         -23.183668      -54.644848      -16.193651
 H         -19.894102      -55.771950      -15.955229
 H         -21.803925      -56.353382      -16.446337
 C         -19.855770      -56.554115      -15.138444
 C         -20.520859      -56.464630      -13.747840
 C         -18.491829      -57.475109      -15.108988
 C         -20.968508      -57.929043      -13.405597
 C         -18.956903      -58.905453      -14.713840
 C         -19.708649      -58.882347      -13.385574
 H         -21.463896      -55.835747      -13.700022
 H         -19.742191      -56.084412      -13.040255
 H         -18.077734      -57.406700      -16.130615
 H         -17.813147      -57.055668      -14.346841
 H         -21.721443      -58.203949      -14.214673
 H         -21.520426      -57.981621      -12.443537
 H         -18.174358      -59.700928      -14.608129
 H         -19.648348      -59.271156      -15.486438
 H         -19.902658      -59.937767      -13.135642
 H         -19.079180      -58.504723      -12.612313
