20
 generated by VMD
 C          -6.063832      -22.212194        1.944602
 N          -6.517822      -22.946268        2.666961
 H          -5.313048      -19.371593       -0.751471
 H          -6.637165      -20.278881       -0.185171
 C          -6.168317      -19.923977       -1.078754
 C          -5.715235      -21.103218       -1.940827
 C          -7.160733      -19.047743       -1.845216
 C          -6.903371      -21.974297       -2.523511
 C          -8.333651      -19.869181       -2.425485
 C          -7.941994      -21.072294       -3.267555
 H          -5.023622      -21.714310       -1.377534
 H          -5.041537      -20.784798       -2.819339
 H          -7.711983      -18.316784       -1.201102
 H          -6.613949      -18.553677       -2.715364
 H          -7.424152      -22.356274       -1.642399
 H          -6.537485      -22.769167       -3.200317
 H          -9.017951      -19.218466       -3.020295
 H          -8.770611      -20.214062       -1.497559
 H          -8.781914      -21.613327       -3.672274
 H          -7.425902      -20.637569       -4.116558
