20
 generated by VMD
 C         -30.821030      -92.848595      -26.054354
 N         -30.208624      -92.547142      -25.126143
 H         -32.890263      -89.544891      -26.334055
 H         -31.243864      -93.117004      -27.055046
 C         -33.332874      -90.037468      -27.223070
 C         -33.992599      -91.474907      -27.133701
 C         -33.350933      -89.389862      -28.488855
 C         -35.239536      -91.651855      -27.855658
 C         -34.652489      -89.609947      -29.271646
 C         -35.055382      -91.168640      -29.321016
 H         -33.980480      -91.655876      -26.100615
 H         -33.201756      -92.054443      -27.562687
 H         -33.331017      -88.280075      -28.342964
 H         -32.586685      -89.736008      -29.201189
 H         -36.020016      -90.971794      -27.464972
 H         -35.470150      -92.682297      -27.706963
 H         -34.627983      -89.299583      -30.287567
 H         -35.467327      -89.012634      -28.843294
 H         -35.986286      -91.196175      -29.866344
 H         -34.374329      -91.879669      -29.725212
