20
 generated by VMD
 C         -12.608662      -31.141144       -8.361679
 N         -12.127669      -30.351723       -7.705485
 H         -11.637320      -33.935905       -7.581953
 H         -12.578580      -33.331066       -6.242684
 C         -11.801400      -34.025753       -6.563982
 C         -10.573548      -33.508789       -5.855563
 C         -12.234795      -35.441570       -6.096539
 C         -10.641259      -33.559269       -4.361606
 C         -12.276922      -35.447926       -4.554001
 C         -10.923899      -35.041634       -3.904315
 H         -10.403701      -32.499084       -6.119162
 H          -9.730158      -34.150028       -6.234519
 H         -13.186943      -35.667252       -6.599510
 H         -11.463725      -36.118881       -6.454428
 H         -11.501096      -33.020512       -3.955435
 H          -9.728724      -33.136662       -3.911215
 H         -12.651669      -36.455978       -4.166142
 H         -12.972730      -34.697212       -4.177272
 H         -10.981025      -35.091503       -2.761646
 H         -10.151473      -35.723427       -4.228013
