20
 generated by VMD
 C         -49.604649     -127.738266      -40.195152
 N         -50.567547     -127.719566      -40.839626
 H         -47.454254     -127.395210      -42.048218
 H         -48.781422     -127.714348      -39.504353
 C         -46.710030     -126.802917      -41.478512
 C         -45.858803     -127.267952      -40.341869
 C         -46.839966     -125.220551      -41.593452
 C         -44.432251     -126.655067      -40.491161
 C         -45.427792     -124.660683      -41.736961
 C         -44.471432     -125.186623      -40.741085
 H         -45.794331     -128.391235      -40.436008
 H         -46.294113     -126.959229      -39.329227
 H         -47.424881     -124.996048      -42.461906
 H         -47.221622     -124.863152      -40.553730
 H         -43.944275     -127.214539      -41.332630
 H         -43.865726     -126.811783      -39.579712
 H         -45.639771     -123.610252      -41.806316
 H         -45.062134     -124.881500      -42.686363
 H         -43.476830     -124.724159      -41.058769
 H         -44.632893     -124.711723      -39.752235
