20
 generated by VMD
 C         -12.828484      -30.114758       -8.365055
 N         -13.814428      -30.570520       -8.605954
 H         -10.965087      -30.864714       -5.012239
 H         -10.946182      -31.612986       -3.366981
 C         -10.817519      -31.795746       -4.509305
 C          -9.463692      -32.425823       -4.961859
 C         -11.933596      -32.723873       -4.913767
 C          -9.182561      -33.729816       -4.189550
 C         -11.767095      -34.096657       -4.154727
 C         -10.301974      -34.679646       -4.580539
 H          -8.646841      -31.684200       -4.626385
 H          -9.493326      -32.569878       -6.038414
 H         -12.857013      -32.305313       -4.535881
 H         -11.945589      -32.871349       -6.000113
 H          -9.175961      -33.571331       -3.148154
 H          -8.272882      -34.113628       -4.609498
 H         -12.505749      -34.812893       -4.437921
 H         -11.774178      -33.916714       -3.056462
 H         -10.196636      -35.640472       -4.100560
 H         -10.268805      -34.793423       -5.675952
