20
 generated by VMD
 C         -28.177277      -84.629074      -26.095917
 N         -28.281567      -84.202957      -27.156105
 H         -31.477076      -84.373062      -26.269974
 H         -28.007921      -85.099609      -25.197012
 C         -31.492729      -85.412750      -25.870033
 C         -31.566294      -85.756882      -24.326900
 C         -31.883696      -86.667412      -26.786947
 C         -33.036861      -86.262161      -23.951941
 C         -33.279125      -87.143448      -26.316784
 C         -33.426682      -87.430634      -24.829798
 H         -31.383671      -84.929062      -23.635025
 H         -30.874353      -86.544403      -24.041973
 H         -31.939354      -86.279869      -27.842220
 H         -31.062857      -87.405327      -26.726566
 H         -33.688030      -85.466354      -24.235710
 H         -32.947773      -86.630241      -22.871477
 H         -33.408474      -88.124954      -26.875891
 H         -34.090176      -86.495949      -26.527781
 H         -34.440357      -87.708984      -24.700117
 H         -32.853146      -88.280830      -24.515839
