20
 generated by VMD
 C          -6.228973      -22.310606        1.915136
 N          -6.417717      -22.955179        2.806322
 H          -5.318874      -19.613956       -0.707748
 H          -6.921649      -20.520319       -0.170362
 C          -6.291412      -20.104986       -1.047167
 C          -5.784659      -21.251699       -1.935008
 C          -7.182519      -19.112593       -1.855265
 C          -6.915433      -21.979103       -2.656058
 C          -8.328657      -19.863659       -2.512364
 C          -7.848003      -21.007982       -3.347100
 H          -5.140865      -21.966610       -1.361309
 H          -5.123454      -20.881409       -2.653601
 H          -7.563847      -18.324032       -1.251575
 H          -6.556779      -18.642582       -2.541338
 H          -7.505598      -22.497820       -1.910969
 H          -6.531530      -22.692522       -3.367174
 H          -8.840491      -19.188116       -3.182242
 H          -8.963856      -20.145317       -1.663876
 H          -8.670071      -21.598797       -3.779959
 H          -7.365006      -20.614115       -4.253400
