20
 generated by VMD
 C         -65.668480     -177.670181      -56.790665
 N         -66.144333     -176.606857      -56.676235
 H         -64.798485     -175.606064      -59.502182
 H         -65.255241     -178.671173      -56.771137
 C         -64.667892     -174.452209      -59.483105
 C         -65.429268     -173.497650      -58.580658
 C         -63.478115     -174.152237      -60.383682
 C         -65.129051     -172.019424      -58.933620
 C         -63.117577     -172.631912      -60.262012
 C         -64.361290     -171.821030      -60.234272
 H         -65.097946     -173.836914      -57.611294
 H         -66.495705     -173.709885      -58.522419
 H         -62.646347     -174.730087      -59.961296
 H         -63.620300     -174.431396      -61.522518
 H         -64.591507     -171.487381      -58.144127
 H         -66.101524     -171.458405      -59.024399
 H         -62.524876     -172.288895      -61.096886
 H         -62.408745     -172.484634      -59.382915
 H         -64.103157     -170.756546      -60.453938
 H         -64.937286     -172.057693      -61.129715
