20
 generated by VMD
 C         -13.411676      -29.618261       -7.357581
 N         -13.552119      -29.157467       -8.368259
 H         -11.538942      -30.249687       -4.779473
 H         -10.099043      -30.352209       -3.627935
 C         -10.678741      -30.904934       -4.359358
 C          -9.774969      -31.448336       -5.489386
 C         -11.352793      -32.035439       -3.524773
 C          -8.790347      -32.367947       -4.897981
 C         -10.255205      -32.949554       -2.966349
 C          -9.351576      -33.514149       -4.140106
 H          -9.234866      -30.715736       -5.996998
 H         -10.426229      -31.895113       -6.286255
 H         -11.965577      -31.623064       -2.688390
 H         -12.019471      -32.577007       -4.207734
 H          -8.004122      -31.889919       -4.236627
 H          -8.212731      -32.798874       -5.740437
 H         -10.672134      -33.868011       -2.467782
 H          -9.676451      -32.435658       -2.214387
 H          -8.509597      -34.165192       -3.728616
 H          -9.999294      -34.185463       -4.734273
