20
 generated by VMD
 C         -11.546270      -26.955269       -0.924281
 N         -12.447798      -26.423649       -1.271289
 H         -10.347972      -26.125376       -4.235257
 H          -9.004831      -25.624487       -5.190343
 C          -9.255324      -26.067774       -4.205427
 C          -8.675282      -27.424667       -4.129415
 C          -8.669294      -25.142727       -3.186576
 C          -7.172413      -27.357040       -4.361537
 C          -7.145165      -25.053625       -3.327120
 C          -6.545743      -26.421579       -3.363776
 H          -9.275843      -28.172104       -4.667205
 H          -8.790380      -27.842726       -3.145294
 H          -9.047905      -24.108934       -3.167727
 H          -8.993472      -25.514868       -2.152271
 H          -7.040624      -26.964773       -5.364432
 H          -6.672482      -28.330807       -4.352327
 H          -6.701153      -24.435181       -2.576151
 H          -7.075212      -24.557734       -4.283517
 H          -5.459280      -26.348310       -3.497491
 H          -6.748690      -26.829660       -2.373529
