20
 generated by VMD
 C         -19.843899      -59.962482      -17.065994
 N         -18.873880      -60.608047      -16.973242
 H         -22.843210      -60.897930      -17.314892
 H         -20.690638      -59.440289      -16.939274
 C         -23.240042      -61.823883      -17.030302
 C         -23.780357      -62.713890      -18.175196
 C         -23.392992      -62.302204      -15.661407
 C         -23.849255      -64.184868      -17.793587
 C         -23.105129      -63.768871      -15.409535
 C         -24.117273      -64.515564      -16.267395
 H         -23.294346      -62.456654      -19.121367
 H         -24.813101      -62.257107      -18.408142
 H         -22.900002      -61.710499      -14.913484
 H         -24.461735      -62.104156      -15.386940
 H         -22.862669      -64.630707      -17.999191
 H         -24.513380      -64.685120      -18.498856
 H         -23.411295      -63.947571      -14.344768
 H         -22.098116      -64.051003      -15.808541
 H         -23.918526      -65.573112      -16.133572
 H         -25.127125      -64.205673      -15.933494
