20
 generated by VMD
 C         -21.067244      -52.292374       -9.637275
 N         -21.329201      -52.431129      -10.727302
 H         -19.118977      -50.166752      -11.556446
 H         -20.522877      -51.808201       -8.649375
 C         -18.335474      -50.084450      -12.289211
 C         -17.793772      -51.435673      -12.731540
 C         -17.446203      -48.877022      -12.245713
 C         -16.843874      -51.417305      -13.936682
 C         -16.474014      -48.955948      -13.420763
 C         -15.826191      -50.338974      -13.664379
 H         -18.620596      -52.170063      -12.785692
 H         -17.177084      -51.762794      -11.939586
 H         -17.977571      -47.944286      -12.313683
 H         -16.781515      -48.951126      -11.361164
 H         -17.473877      -51.183960      -14.805126
 H         -16.411619      -52.404144      -14.147911
 H         -15.686412      -48.329998      -13.138841
 H         -16.898182      -48.489876      -14.343692
 H         -15.020230      -50.393887      -14.459542
 H         -15.355012      -50.617451      -12.668275
