20
 generated by VMD
 C         -11.519302      -33.726254       -9.103059
 N         -11.259920      -34.485615       -8.313284
 H         -11.437346      -37.073776       -8.003089
 H         -12.180916      -36.324734       -6.563725
 C         -12.235109      -37.214890       -7.263293
 C         -12.075874      -38.565792       -6.592958
 C         -13.657770      -37.063416       -7.885515
 C         -13.167077      -38.838753       -5.562171
 C         -14.726998      -37.293449       -6.817702
 C         -14.589276      -38.660137       -6.127146
 H         -11.140327      -38.509899       -6.041854
 H         -12.084852      -39.362331       -7.389750
 H         -13.769023      -36.045532       -8.274320
 H         -13.736901      -37.820900       -8.712030
 H         -13.087511      -38.031029       -4.833697
 H         -12.951647      -39.867786       -5.087572
 H         -15.727320      -37.157433       -7.253424
 H         -14.637493      -36.491055       -6.035167
 H         -15.331796      -38.887474       -5.403397
 H         -14.692707      -39.364243       -6.968358
