20
 generated by VMD
 C         -78.914406     -204.215805      -70.421654
 N         -79.945320     -204.804810      -70.598541
 H         -76.750923     -203.347946      -68.552757
 H         -78.039009     -203.605179      -70.504959
 C         -75.818047     -203.233612      -69.194077
 C         -75.786949     -202.028122      -70.070793
 C         -74.573181     -204.006104      -68.980019
 C         -74.454605     -201.523956      -70.636978
 C         -73.384865     -203.059464      -68.984146
 C         -73.185745     -202.435822      -70.363274
 H         -76.134171     -201.182404      -69.466812
 H         -76.525360     -202.061920      -70.920372
 H         -74.606010     -204.379257      -67.984085
 H         -74.452293     -204.709747      -69.822586
 H         -74.189194     -200.587555      -70.085266
 H         -74.555870     -201.298828      -71.713737
 H         -72.462173     -203.631165      -69.005043
 H         -73.372528     -202.215012      -68.222092
 H         -72.348213     -201.810272      -70.252914
 H         -73.127693     -203.172333      -71.182762
