20
 generated by VMD
 C         -10.974008      -34.189899       -8.595469
 N         -11.184088      -33.153286       -9.029926
 H         -11.538997      -38.059494       -7.988853
 H         -12.061484      -37.178150       -6.650387
 C         -12.358926      -38.018509       -7.297850
 C         -12.485951      -39.401749       -6.612722
 C         -13.678024      -37.724396       -8.059070
 C         -13.669754      -39.304359       -5.597088
 C         -14.899799      -37.741497       -7.107810
 C         -14.949156      -39.087009       -6.312903
 H         -11.546041      -39.698624       -6.101913
 H         -12.685257      -40.263355       -7.290967
 H         -13.526783      -36.733513       -8.592541
 H         -13.718320      -38.372322       -8.925599
 H         -13.437789      -38.519642       -4.821720
 H         -13.766494      -40.244011       -4.958385
 H         -15.816047      -37.689941       -7.738400
 H         -14.887774      -36.890476       -6.481063
 H         -15.786139      -39.153488       -5.659786
 H         -15.038030      -39.881573       -7.052310
