20
 generated by VMD
 C         -10.952518      -40.505539       -7.253023
 N         -11.544629      -40.336529       -6.336816
 H         -13.748221      -40.585968       -8.754111
 H         -15.239231      -40.024750       -9.291756
 C         -14.690022      -40.923660       -9.122409
 C         -15.562306      -41.703342       -8.099483
 C         -14.471352      -41.759331      -10.434587
 C         -16.911863      -42.050823       -8.719768
 C         -15.809811      -42.280720      -10.993780
 C         -16.693487      -42.997715       -9.932475
 H         -15.713593      -41.053795       -7.162925
 H         -15.100579      -42.626171       -7.710374
 H         -14.016261      -41.147697      -11.270940
 H         -13.735950      -42.528938      -10.228801
 H         -17.431522      -41.152687       -9.016987
 H         -17.630850      -42.492409       -8.008879
 H         -15.622605      -43.037136      -11.723478
 H         -16.433937      -41.465157      -11.465396
 H         -17.664656      -43.210060      -10.425751
 H         -16.130051      -43.870903       -9.619212
