20
 generated by VMD
 C         -20.486153      -64.446190      -17.079741
 N         -19.725899      -64.514977      -16.216778
 H         -23.764635      -63.550163      -17.577499
 H         -21.304754      -64.611053      -17.906376
 C         -24.234795      -64.470825      -17.993752
 C         -24.920755      -64.612785      -19.337955
 C         -24.878946      -65.313408      -16.851213
 C         -24.692566      -66.130615      -19.764320
 C         -24.857439      -66.783607      -17.195141
 C         -25.208544      -67.100243      -18.689880
 H         -24.376560      -63.948990      -19.948809
 H         -26.017023      -64.375046      -19.360619
 H         -24.449879      -65.138786      -15.789140
 H         -25.906107      -64.985764      -16.600506
 H         -23.599552      -66.189011      -19.953724
 H         -25.227905      -66.171829      -20.758600
 H         -25.556345      -67.365768      -16.593828
 H         -23.820194      -67.145042      -16.931026
 H         -25.065079      -68.150810      -18.854288
 H         -26.337574      -66.908630      -18.693012
