20
 generated by VMD
 C         -14.820890      -45.493393       -6.636571
 N         -14.539324      -46.479328       -7.072210
 H         -15.341651      -44.119770       -9.028396
 H         -14.418658      -44.247543      -10.456762
 C         -15.484466      -44.341228      -10.085196
 C         -16.427876      -43.287239      -10.749984
 C         -16.013878      -45.731537      -10.310575
 C         -16.714090      -43.719616      -12.158278
 C         -16.246004      -46.176033      -11.731348
 C         -17.208956      -45.190269      -12.346246
 H         -16.156483      -42.266483      -10.562972
 H         -17.373281      -43.362679      -10.172976
 H         -15.294299      -46.320873       -9.795141
 H         -16.927240      -45.986008       -9.794986
 H         -15.877189      -43.567608      -12.823876
 H         -17.534372      -43.105751      -12.556437
 H         -16.721085      -47.095024      -11.688728
 H         -15.315848      -46.246258      -12.332614
 H         -17.294384      -45.464699      -13.400280
 H         -18.214016      -45.156116      -11.816535
