20
 generated by VMD
 C         -38.457352     -111.455284      -36.203056
 N         -38.400597     -110.617111      -36.989288
 H         -40.317558     -114.272881      -34.998119
 H         -38.620388     -112.000023      -35.260372
 C         -41.373711     -114.312790      -35.175663
 C         -41.900318     -114.515198      -36.611378
 C         -42.218285     -113.339294      -34.265484
 C         -43.332664     -114.219482      -36.923656
 C         -43.694954     -113.165474      -34.704922
 C         -43.746391     -112.898621      -36.245491
 H         -41.630817     -115.547401      -36.834019
 H         -41.385307     -113.760590      -37.146076
 H         -41.963032     -113.712379      -33.284008
 H         -41.691662     -112.383957      -34.376190
 H         -44.127895     -114.950569      -36.699604
 H         -43.353729     -114.132759      -38.007641
 H         -44.193878     -112.182617      -34.272980
 H         -44.302658     -114.156616      -34.549496
 H         -44.633591     -112.511772      -36.595463
 H         -42.994888     -112.058571      -36.346016
