20
 generated by VMD
 C         -67.874535     -185.206482      -68.087334
 N         -67.592041     -185.568710      -67.024658
 H         -69.719360     -185.841217      -64.690956
 H         -68.095322     -184.728378      -69.074684
 C         -69.873894     -186.106293      -63.651836
 C         -70.948204     -185.513290      -62.617207
 C         -69.162514     -187.296371      -63.030781
 C         -70.189819     -185.195862      -61.297585
 C         -68.734337     -187.225418      -61.588993
 C         -69.759262     -186.510605      -60.714104
 H         -71.887878     -186.160980      -62.544785
 H         -71.355324     -184.638763      -63.110619
 H         -69.710556     -188.243958      -63.142731
 H         -68.368454     -187.475983      -63.721157
 H         -70.771217     -184.457581      -60.642551
 H         -69.274498     -184.688049      -61.588200
 H         -67.755615     -186.784744      -61.442097
 H         -68.508835     -188.213364      -61.147892
 H         -70.538475     -187.216293      -60.371746
 H         -69.159218     -186.336761      -59.827602
