20
 generated by VMD
 C          -1.223216      -13.015704        1.077103
 N          -0.545885      -12.916499        0.165484
 H          -4.184910      -13.090577        1.618948
 H          -5.534576      -13.121525        0.625633
 C          -5.038409      -13.757109        1.341976
 C          -5.824417      -14.161739        2.579265
 C          -4.363498      -14.976624        0.630769
 C          -6.736801      -15.374928        2.379842
 C          -5.394730      -16.081476        0.428975
 C          -6.064811      -16.546307        1.692277
 H          -6.460571      -13.330848        2.839607
 H          -5.130978      -14.292076        3.397605
 H          -3.978843      -14.727571       -0.322109
 H          -3.542268      -15.264812        1.213631
 H          -7.513638      -15.059618        1.630248
 H          -7.303623      -15.696978        3.280156
 H          -4.885301      -16.937004       -0.027666
 H          -6.186540      -15.720551       -0.301001
 H          -6.792822      -17.337811        1.541318
 H          -5.344281      -16.970139        2.387774
