20
 generated by VMD
 C         -12.542054      -31.069063       -8.389336
 N         -12.076301      -30.413338       -7.627098
 H         -11.737035      -34.163612       -7.703525
 H         -12.735544      -33.447876       -6.358531
 C         -11.872399      -34.124851       -6.612189
 C         -10.576621      -33.525089       -5.974073
 C         -12.153013      -35.513966       -6.022484
 C         -10.715537      -33.622257       -4.434076
 C         -12.299761      -35.565311       -4.534433
 C         -11.079349      -34.979404       -3.919183
 H         -10.387456      -32.513863       -6.279276
 H          -9.673323      -34.113205       -6.220553
 H         -13.039368      -35.848354       -6.547488
 H         -11.326869      -36.176125       -6.353124
 H         -11.454696      -32.879364       -4.098207
 H          -9.813581      -33.243095       -4.008821
 H         -12.447996      -36.548649       -4.239939
 H         -13.209045      -35.029945       -4.131342
 H         -11.201126      -35.027729       -2.835346
 H         -10.224757      -35.620697       -4.176173
