20
 generated by VMD
 C         -66.989746     -189.865219      -67.018524
 N         -67.288582     -190.132965      -65.924606
 H         -70.754601     -190.776642      -66.335823
 H         -66.497009     -189.674271      -67.947601
 C         -71.111626     -190.367966      -65.441269
 C         -72.299599     -191.061813      -64.957642
 C         -70.417999     -189.349106      -64.608459
 C         -73.313545     -190.264633      -64.134720
 C         -71.418861     -188.477859      -63.960411
 C         -72.523575     -189.284821      -63.185722
 H         -71.819519     -191.765533      -64.285652
 H         -72.836639     -191.420120      -65.819763
 H         -69.894768     -189.953629      -63.885822
 H         -69.743454     -188.793930      -65.342216
 H         -73.838692     -191.002197      -63.554382
 H         -73.940559     -189.625580      -64.837166
 H         -71.933929     -187.799545      -64.723434
 H         -70.814339     -187.871368      -63.308159
 H         -71.927040     -189.732697      -62.380169
 H         -73.317589     -188.710297      -62.615711
