20
 generated by VMD
 C         -59.859352     -157.498718      -56.659100
 N         -59.268417     -158.525711      -56.583675
 H         -60.264790     -157.645340      -53.321194
 H         -60.354034     -156.552200      -56.762405
 C         -59.722740     -158.347504      -52.694675
 C         -58.345356     -158.168472      -52.243427
 C         -60.030838     -159.758301      -53.066853
 C         -57.802032     -159.216110      -51.308472
 C         -59.615204     -160.778076      -52.043568
 C         -58.106979     -160.543320      -51.797806
 H         -58.363640     -157.231186      -51.832478
 H         -57.732662     -158.274826      -53.152279
 H         -61.082699     -159.808563      -53.493656
 H         -59.343006     -159.909622      -53.974155
 H         -58.078388     -158.834976      -50.292774
 H         -56.707363     -159.072205      -51.283005
 H         -59.787014     -161.845688      -52.303471
 H         -60.168312     -160.711243      -51.036304
 H         -57.701054     -161.387100      -51.114517
 H         -57.528721     -160.756042      -52.656128
