20
 generated by VMD
 C         -61.258755     -172.312912      -55.064339
 N         -60.380981     -173.043533      -55.072834
 H         -62.401463     -170.636948      -58.169537
 H         -62.037312     -171.593246      -55.033848
 C         -62.992447     -169.895767      -57.589176
 C         -62.590935     -168.489883      -57.576557
 C         -64.447357     -170.317276      -57.455921
 C         -63.331287     -167.760040      -58.670444
 C         -65.220695     -169.633026      -58.509281
 C         -64.835327     -168.170776      -58.793953
 H         -61.431633     -168.489639      -57.722607
 H         -62.733845     -168.109970      -56.594173
 H         -64.575562     -171.424606      -57.394371
 H         -64.794151     -170.028809      -56.411018
 H         -62.928349     -167.826660      -59.663712
 H         -63.322735     -166.737045      -58.382984
 H         -66.292229     -169.487610      -58.177479
 H         -65.298569     -170.250717      -59.512516
 H         -65.139648     -167.692978      -59.724167
 H         -65.324471     -167.556580      -58.062630
