20
 generated by VMD
 C         -78.326363     -209.665466      -77.003029
 N         -78.648430     -208.890564      -77.841797
 H         -79.008156     -210.583527      -73.328857
 H         -78.127640     -210.363342      -76.139008
 C         -78.895081     -211.646774      -72.983154
 C         -77.788261     -211.988037      -72.013565
 C         -80.031281     -212.535324      -72.906715
 C         -78.147888     -212.241730      -70.642326
 C         -80.390739     -212.930618      -71.457031
 C         -79.263779     -213.299194      -70.566895
 H         -77.022285     -211.174713      -72.028221
 H         -77.174286     -212.776215      -72.416969
 H         -80.880707     -211.981567      -73.249557
 H         -79.830681     -213.495285      -73.522804
 H         -78.533806     -211.289215      -70.227592
 H         -77.291153     -212.431152      -70.009529
 H         -81.224358     -213.708710      -71.643707
 H         -80.878258     -212.121689      -71.052254
 H         -79.723114     -213.338577      -69.544945
 H         -78.990074     -214.304169      -70.670013
