20
 generated by VMD
 C         -29.147795      -80.369568      -26.964159
 N         -30.021379      -80.184982      -27.721262
 H         -28.269833      -82.723557      -24.530302
 H         -28.589756      -80.406654      -26.100168
 C         -29.188589      -83.075279      -24.132401
 C         -29.396294      -83.022034      -22.560244
 C         -29.931347      -84.084496      -24.931202
 C         -30.972406      -83.214256      -22.167103
 C         -31.433464      -84.066566      -24.484123
 C         -31.628281      -84.247345      -22.944603
 H         -29.035501      -82.028267      -22.139187
 H         -28.867996      -83.811806      -22.087130
 H         -29.799326      -83.751701      -25.945028
 H         -29.552185      -85.084183      -24.794487
 H         -31.359726      -82.250534      -22.463333
 H         -31.154175      -83.435211      -21.122633
 H         -31.979124      -84.894249      -24.934561
 H         -31.917221      -83.076797      -24.710888
 H         -32.722313      -84.228638      -22.839748
 H         -31.291197      -85.174438      -22.636063
