20
 generated by VMD
 C         -30.252390      -79.491936      -25.915115
 N         -30.965452      -78.583916      -26.147499
 H         -28.449780      -82.583275      -25.530996
 H         -29.561487      -80.349518      -25.905878
 C         -28.934259      -82.488159      -24.644024
 C         -28.149769      -81.834702      -23.649448
 C         -29.973900      -83.411804      -24.297138
 C         -29.038052      -81.254913      -22.516388
 C         -30.803267      -82.977425      -23.047480
 C         -30.013168      -82.266884      -21.917667
 H         -27.560593      -81.014465      -24.106812
 H         -27.326851      -82.382744      -23.199190
 H         -30.693876      -83.615547      -25.085445
 H         -29.408045      -84.403175      -24.141960
 H         -29.678022      -80.479431      -22.671827
 H         -28.276756      -80.976601      -21.740263
 H         -31.421001      -83.884964      -22.706944
 H         -31.523697      -82.162834      -23.354988
 H         -30.715374      -81.753235      -21.193680
 H         -29.369045      -82.938629      -21.300684
