20
 generated by VMD
 C         -48.320370     -136.097153      -46.082108
 N         -47.155720     -136.134689      -45.980213
 H         -51.471497     -135.103516      -45.874050
 H         -49.344646     -136.097168      -46.517315
 C         -51.622005     -136.098938      -45.357071
 C         -52.261135     -137.339737      -46.014503
 C         -51.439602     -135.989182      -43.895920
 C         -51.889980     -138.624527      -45.309410
 C         -51.095886     -137.372559      -43.276894
 C         -51.910618     -138.559525      -43.718643
 H         -51.796131     -137.370987      -46.958187
 H         -53.377213     -137.208084      -46.181610
 H         -50.663666     -135.218292      -43.732071
 H         -52.409786     -135.545258      -43.579319
 H         -50.938072     -138.978394      -45.660702
 H         -52.518200     -139.435791      -45.520287
 H         -51.142689     -137.323105      -42.253517
 H         -50.026218     -137.648468      -43.513489
 H         -51.283161     -139.510345      -43.335438
 H         -52.949158     -138.453506      -43.248802
