20
 generated by VMD
 C         -21.349741      -64.997169      -17.117117
 N         -20.558737      -65.455261      -16.390001
 H         -23.957945      -63.743511      -17.782379
 H         -22.024916      -64.443245      -17.738945
 C         -24.184689      -64.693436      -18.152033
 C         -24.562542      -65.015755      -19.545073
 C         -25.013668      -65.532623      -17.071554
 C         -24.364178      -66.485504      -19.777998
 C         -24.884840      -66.963509      -17.334574
 C         -25.247175      -67.222191      -18.831234
 H         -23.935034      -64.440460      -20.198950
 H         -25.632395      -64.839775      -19.791288
 H         -24.540852      -65.218597      -16.016640
 H         -26.044704      -65.154747      -16.940327
 H         -23.357229      -66.852821      -19.678774
 H         -24.819519      -66.795860      -20.725866
 H         -25.548550      -67.512329      -16.728043
 H         -23.860401      -67.289368      -17.084789
 H         -25.228020      -68.224243      -19.097553
 H         -26.264448      -66.884293      -19.094820
