20
 generated by VMD
 C         -40.751194     -102.753876      -34.937328
 N         -41.492241     -102.470802      -35.772984
 H         -39.840717     -104.464157      -32.933144
 H         -40.372215     -102.971092      -33.966629
 C         -38.839497     -104.760376      -32.364929
 C         -37.716541     -104.063873      -32.945812
 C         -38.664852     -105.926132      -31.436420
 C         -36.503502     -104.018417      -31.925629
 C         -37.336613     -105.837601      -30.551355
 C         -36.117664     -105.355095      -31.251616
 H         -37.993511     -103.023972      -33.102943
 H         -37.316666     -104.424118      -33.860313
 H         -39.526344     -105.932777      -30.735460
 H         -38.630375     -106.969124      -31.894493
 H         -36.701420     -103.260330      -31.121647
 H         -35.592148     -103.762451      -32.543358
 H         -37.309101     -106.878418      -30.008745
 H         -37.433350     -105.064148      -29.727062
 H         -35.192390     -105.340103      -30.583477
 H         -35.860870     -105.990578      -32.047291
