20
 generated by VMD
 C         -40.858471     -103.480171      -35.626423
 N         -41.348328     -104.522377      -35.513107
 H         -38.740826     -104.531303      -34.005627
 H         -40.553158     -102.406876      -35.738091
 C         -38.529129     -105.008904      -33.139427
 C         -37.149815     -104.820633      -32.820324
 C         -39.330421     -106.200874      -32.752174
 C         -36.890873     -105.530327      -31.413090
 C         -38.952953     -107.035004      -31.549810
 C         -37.440487     -106.961143      -31.490938
 H         -36.962746     -103.797180      -32.710880
 H         -36.494061     -105.186142      -33.577656
 H         -40.462730     -105.933411      -32.579350
 H         -39.304829     -106.891945      -33.558186
 H         -37.487617     -104.854782      -30.785656
 H         -35.821705     -105.593781      -31.080452
 H         -39.339973     -108.077896      -31.665995
 H         -39.447079     -106.581612      -30.655947
 H         -37.152588     -107.263458      -30.534731
 H         -36.899479     -107.652168      -32.233433
