20
 generated by VMD
 C         -22.704447      -68.404694      -16.631695
 N         -22.845108      -69.090691      -15.703354
 H         -24.102825      -65.864571      -18.676691
 H         -22.721533      -67.874664      -17.592505
 C         -24.582350      -66.671432      -19.211884
 C         -23.954401      -67.523811      -20.235243
 C         -26.017143      -66.876648      -18.961124
 C         -24.546711      -68.969528      -20.436581
 C         -26.578428      -68.297546      -19.267519
 C         -26.024284      -68.980934      -20.620802
 H         -22.901266      -67.610451      -19.983896
 H         -24.100618      -66.941231      -21.226587
 H         -26.087931      -66.881096      -17.908997
 H         -26.594746      -66.176735      -19.525587
 H         -24.195282      -69.476974      -19.597763
 H         -23.993231      -69.472481      -21.231585
 H         -27.617315      -68.376198      -19.313377
 H         -26.231127      -68.940468      -18.455822
 H         -26.516565      -69.984467      -20.620646
 H         -26.327059      -68.467339      -21.565676
