20
 generated by VMD
 C         -23.362858      -52.964783      -12.747758
 N         -22.973299      -52.615826      -13.774433
 H         -20.396660      -54.726406      -13.587620
 H         -23.692303      -53.471626      -12.012786
 C         -19.407343      -54.642696      -13.874641
 C         -19.023766      -53.208969      -14.020391
 C         -18.367243      -55.601749      -14.077497
 C         -17.644545      -52.770737      -13.446658
 C         -17.254997      -55.362640      -13.074767
 C         -16.644735      -53.912144      -13.304630
 H         -19.892647      -52.635090      -13.619861
 H         -18.939314      -53.020660      -15.095693
 H         -18.710670      -56.624424      -13.962939
 H         -17.920988      -55.554928      -15.125966
 H         -17.782921      -52.272285      -12.459291
 H         -17.204746      -51.997154      -14.090578
 H         -16.489380      -56.125942      -13.063293
 H         -17.707592      -55.380402      -12.031096
 H         -16.014378      -53.613052      -12.525163
 H         -16.028645      -53.977631      -14.183087
