20
 generated by VMD
 C         -49.547173     -131.977783      -46.431026
 N         -50.257030     -132.266998      -47.228298
 H         -47.672554     -133.765030      -44.457973
 H         -49.158978     -131.569778      -45.547184
 C         -48.391052     -134.137207      -43.721603
 C         -49.116131     -135.518356      -43.951080
 C         -49.085506     -133.097351      -42.932671
 C         -49.791042     -136.050690      -42.649616
 C         -49.756241     -133.663223      -41.675186
 C         -50.587368     -134.935257      -41.912434
 H         -48.215115     -136.190628      -44.100670
 H         -49.786762     -135.624985      -44.753212
 H         -48.275436     -132.243210      -42.766777
 H         -49.870052     -132.679398      -43.578362
 H         -49.020725     -136.535172      -41.996918
 H         -50.361393     -136.955215      -42.997749
 H         -50.453621     -132.984619      -41.296303
 H         -48.961479     -133.839020      -40.953556
 H         -50.789936     -135.378799      -40.942757
 H         -51.434269     -134.666809      -42.478203
