20
 generated by VMD
 C         -11.306001      -39.510662       -7.095334
 N         -10.945044      -39.905499       -6.093262
 H         -13.317398      -40.758472       -9.083829
 H         -14.693735      -39.837311       -9.196645
 C         -14.326896      -40.853901       -9.230005
 C         -14.971781      -41.659199       -8.082098
 C         -14.655618      -41.518066      -10.565559
 C         -16.470358      -41.943016       -8.291292
 C         -16.157537      -41.665718      -10.796916
 C         -16.821884      -42.538994       -9.663466
 H         -14.778922      -41.237339       -7.123996
 H         -14.401781      -42.578827       -8.179560
 H         -14.186011      -40.919704      -11.330968
 H         -14.229451      -42.588684      -10.529985
 H         -16.987968      -40.979214       -8.181215
 H         -16.773432      -42.651802       -7.537576
 H         -16.431610      -42.172882      -11.785214
 H         -16.659195      -40.764351      -10.822681
 H         -17.871143      -42.645264       -9.828927
 H         -16.386660      -43.529137       -9.750659
