20
 generated by VMD
 C         -38.223316     -107.981880      -36.877506
 N         -38.358524     -108.484154      -37.889359
 H         -40.946548     -108.574562      -35.117512
 H         -38.296921     -107.551407      -35.880280
 C         -41.174156     -109.579079      -34.901924
 C         -40.326199     -110.881149      -35.134594
 C         -42.554111     -109.814316      -33.994740
 C         -40.116173     -111.703079      -33.894279
 C         -42.217709     -110.683174      -32.774002
 C         -41.401302     -111.890038      -33.092117
 H         -39.323769     -110.429733      -35.384007
 H         -40.848293     -111.299126      -36.000874
 H         -42.904510     -108.856789      -33.651737
 H         -43.390987     -110.137817      -34.599483
 H         -39.446987     -111.089157      -33.203388
 H         -39.743855     -112.746796      -34.001839
 H         -43.127712     -110.912506      -32.159748
 H         -41.623974     -110.093430      -32.118145
 H         -41.239159     -112.466927      -32.186970
 H         -42.035316     -112.631393      -33.729557
