20
 generated by VMD
 C         -40.044231     -104.809525      -36.112488
 N         -39.481934     -104.419914      -37.048042
 H         -39.724159     -108.464737      -35.322330
 H         -40.756989     -105.166626      -35.419548
 C         -39.858749     -108.307846      -34.241604
 C         -38.837471     -107.327614      -33.730057
 C         -40.282043     -109.496819      -33.497433
 C         -39.073948     -107.072929      -32.245483
 C         -40.007683     -109.396248      -31.965040
 C         -38.859249     -108.557655      -31.514786
 H         -38.877918     -106.421623      -34.375065
 H         -37.729321     -107.648300      -33.939671
 H         -41.294479     -109.613655      -33.807602
 H         -39.653301     -110.332649      -33.934406
 H         -40.116043     -106.735168      -32.142426
 H         -38.354614     -106.398697      -31.851000
 H         -39.676456     -110.377411      -31.555254
 H         -40.877731     -109.130501      -31.331146
 H         -38.771313     -108.451645      -30.506962
 H         -37.852940     -108.955215      -31.901575
