20
 generated by VMD
 C         -48.931515     -133.180283      -47.195396
 N         -48.148315     -133.189789      -48.092716
 H         -48.600239     -134.427078      -43.722588
 H         -49.405025     -132.871933      -46.260376
 C         -49.568447     -134.920151      -43.768925
 C         -49.916409     -136.244385      -44.432655
 C         -50.633678     -134.350845      -42.944759
 C         -50.378452     -137.262939      -43.379761
 C         -51.080643     -135.281509      -41.905548
 C         -51.409576     -136.739120      -42.426437
 H         -48.921970     -136.614929      -44.872658
 H         -50.627438     -136.105972      -45.204872
 H         -50.273197     -133.428818      -42.503574
 H         -51.442352     -134.104935      -43.563583
 H         -49.425755     -137.588928      -42.929806
 H         -50.730789     -138.204391      -43.804672
 H         -52.046371     -134.824295      -41.399956
 H         -50.296806     -135.357025      -41.015278
 H         -51.345779     -137.478806      -41.618027
 H         -52.297276     -136.721359      -43.159336
