20
 generated by VMD
 C         -22.441219      -68.367935      -16.631010
 N         -22.234869      -68.671005      -15.544030
 H         -24.233175      -66.109665      -18.225447
 H         -22.415232      -67.948380      -17.722790
 C         -24.648155      -66.518867      -19.182384
 C         -23.980900      -67.266182      -20.195030
 C         -26.219141      -66.663956      -18.980568
 C         -24.374685      -68.653336      -20.328260
 C         -26.710144      -68.158356      -19.182150
 C         -25.962942      -68.743866      -20.391104
 H         -22.883764      -67.278030      -19.971512
 H         -23.930845      -66.794724      -21.083151
 H         -26.356766      -66.314346      -17.885118
 H         -26.727161      -65.835709      -19.612432
 H         -24.045849      -69.198242      -19.377159
 H         -24.003366      -69.255890      -21.158543
 H         -27.831078      -68.074463      -19.308403
 H         -26.480581      -68.656281      -18.214151
 H         -26.307907      -69.795555      -20.432966
 H         -26.292629      -68.406647      -21.379911
