20
 generated by VMD
 C         -40.626873     -100.200409      -30.298471
 N         -41.184902     -100.465462      -29.299877
 H         -37.284367     -100.561600      -30.397322
 H         -39.981190     -100.147026      -31.214039
 C         -36.363438     -100.118172      -30.863564
 C         -36.056526      -99.908951      -32.222836
 C         -35.280495     -100.194061      -29.795906
 C         -35.179001      -98.757607      -32.482285
 C         -34.514469      -98.984306      -30.043386
 C         -33.968182      -98.837753      -31.535154
 H         -36.988892      -99.653343      -32.733246
 H         -35.697285     -100.906967      -32.584553
 H         -35.831364     -100.182793      -28.822515
 H         -34.696556     -101.138313      -29.889252
 H         -35.790390      -97.811852      -32.381500
 H         -34.835461      -98.866524      -33.584415
 H         -33.524189      -99.026711      -29.429108
 H         -35.142811      -98.105835      -29.813169
 H         -33.359940      -98.025688      -31.647482
 H         -33.444569      -99.714600      -31.943436
