20
 generated by VMD
 C         -50.397011     -131.818085      -47.012699
 N         -50.013783     -132.181549      -47.992718
 H         -48.714802     -131.399033      -43.696899
 H         -50.558018     -131.643600      -45.982754
 C         -48.772537     -132.266769      -42.995243
 C         -49.531410     -133.470764      -43.488506
 C         -48.647255     -132.045609      -41.561394
 C         -49.039009     -134.714905      -42.749886
 C         -48.207096     -133.372620      -40.798656
 C         -49.269875     -134.499313      -41.268021
 H         -49.462517     -133.784454      -44.536312
 H         -50.601948     -133.378738      -43.294147
 H         -47.675011     -131.418945      -41.413612
 H         -49.470989     -131.525589      -41.074455
 H         -48.015942     -135.052780      -43.014690
 H         -49.640358     -135.622025      -42.885014
 H         -48.171886     -133.169937      -39.734798
 H         -47.162300     -133.793015      -40.937511
 H         -48.951344     -135.436722      -40.745842
 H         -50.249149     -134.085266      -41.042381
