20
 generated by VMD
 C         -51.548763     -130.024963      -45.111652
 N         -51.725182     -129.376999      -46.010651
 H         -48.545227     -129.790894      -43.269150
 H         -51.243927     -130.572754      -44.243767
 C         -47.998238     -130.027969      -42.334846
 C         -47.894531     -131.380707      -41.713627
 C         -47.393024     -128.815445      -41.613068
 C         -46.547619     -131.617691      -41.036938
 C         -46.016518     -129.228775      -40.957363
 C         -46.081520     -130.503128      -40.117031
 H         -47.933704     -132.106857      -42.552361
 H         -48.775085     -131.536926      -41.023830
 H         -47.242844     -127.960678      -42.364868
 H         -48.102459     -128.438431      -40.875565
 H         -45.788940     -131.605087      -41.885059
 H         -46.548710     -132.488373      -40.359337
 H         -45.561207     -128.337723      -40.464790
 H         -45.422764     -129.304184      -41.902946
 H         -45.146626     -130.631134      -39.580944
 H         -46.785744     -130.365799      -39.248661
