20
 generated by VMD
 C         -48.389656     -133.559158      -47.380127
 N         -48.134117     -133.263367      -48.406536
 H         -49.207958     -134.137527      -44.110455
 H         -48.396393     -133.635834      -46.312469
 C         -49.929604     -134.908768      -43.814087
 C         -50.063080     -136.284348      -44.474239
 C         -50.837185     -134.529587      -42.695358
 C         -50.435345     -137.374985      -43.499958
 C         -51.212898     -135.691971      -41.758873
 C         -51.571156     -136.961594      -42.653202
 H         -49.076809     -136.555786      -44.916504
 H         -50.765358     -136.164108      -45.380013
 H         -50.324474     -133.740799      -42.159859
 H         -51.865799     -134.102554      -43.120449
 H         -49.594967     -137.755585      -42.842770
 H         -50.749947     -138.253326      -44.057186
 H         -52.124943     -135.598740      -41.192070
 H         -50.479362     -135.837738      -41.014729
 H         -51.674900     -137.751343      -41.938538
 H         -52.473892     -136.682495      -43.315853
