20
 generated by VMD
 C         -75.416763     -201.905151      -66.187454
 N         -76.214958     -202.560272      -65.672485
 H         -75.914497     -199.957092      -69.002426
 H         -74.894608     -201.336700      -66.883125
 C         -75.021774     -199.388977      -69.090240
 C         -74.898682     -198.199493      -68.308105
 C         -74.014893     -199.772156      -70.171768
 C         -73.441010     -197.768066      -68.233101
 C         -73.147919     -198.686554      -70.725319
 C         -72.737221     -197.765747      -69.616226
 H         -75.320816     -198.375565      -67.225540
 H         -75.420540     -197.354538      -68.752243
 H         -73.443405     -200.511581      -69.634476
 H         -74.482933     -200.287979      -71.011040
 H         -72.856094     -198.480331      -67.632034
 H         -73.327232     -196.683395      -67.951218
 H         -73.619514     -198.208725      -71.630501
 H         -72.130287     -199.136108      -71.192841
 H         -71.650574     -198.009933      -69.415833
 H         -72.777138     -196.777924      -70.052200
