20
 generated by VMD
 C         -73.948029     -200.777252      -65.479538
 N         -72.858772     -201.120010      -65.281235
 H         -73.887306     -198.081833      -66.546280
 H         -74.991501     -200.526062      -65.672112
 C         -73.907501     -197.497955      -67.473366
 C         -74.387665     -196.082947      -67.505119
 C         -73.364441     -198.133209      -68.701950
 C         -73.531311     -195.270538      -68.443596
 C         -73.715218     -197.429428      -69.953461
 C         -73.696732     -195.839035      -69.907410
 H         -74.328590     -195.621735      -66.451080
 H         -75.440659     -196.209412      -67.615204
 H         -72.278389     -198.077271      -68.638077
 H         -73.399910     -199.237289      -68.701057
 H         -72.472054     -195.282654      -68.104958
 H         -73.890038     -194.243774      -68.417610
 H         -74.746887     -197.661118      -70.157310
 H         -73.057976     -197.794113      -70.838005
 H         -72.947365     -195.498199      -70.541290
 H         -74.680168     -195.644012      -70.502022
