20
 generated by VMD
 C         -21.101078      -56.410858      -17.214935
 N         -21.001440      -55.412132      -17.741297
 H         -23.197531      -58.691090      -15.867427
 H         -21.416700      -57.056118      -16.356461
 C         -22.302742      -59.200779      -15.481711
 C         -21.891743      -58.965931      -14.064579
 C         -21.671984      -60.272999      -16.334011
 C         -21.004162      -60.027279      -13.437474
 C         -20.467737      -60.896313      -15.697085
 C         -20.648647      -61.168034      -14.230986
 H         -22.850891      -58.919006      -13.500267
 H         -21.533974      -57.973888      -13.852084
 H         -22.399017      -61.098282      -16.400539
 H         -21.502237      -59.942657      -17.379774
 H         -21.448450      -60.460526      -12.495778
 H         -20.067123      -59.605072      -13.005304
 H         -19.623362      -60.171841      -15.867616
 H         -20.080845      -61.792580      -16.259047
 H         -21.528849      -61.818058      -14.107252
 H         -19.777021      -61.593384      -13.752575
