20
 generated by VMD
 C         -32.668854      -92.911285      -25.809946
 N         -32.672039      -94.084839      -25.625263
 H         -33.909431      -95.067986      -28.778465
 H         -32.437408      -91.923019      -25.878576
 C         -34.208847      -94.072433      -29.081799
 C         -35.353615      -93.535057      -28.266153
 C         -33.793655      -93.234566      -30.279219
 C         -35.138611      -92.089775      -27.895552
 C         -33.553654      -91.731384      -29.828184
 C         -34.680031      -91.113228      -29.022091
 H         -35.360943      -94.278893      -27.405220
 H         -36.253292      -93.677879      -28.914627
 H         -32.783447      -93.564621      -30.608128
 H         -34.433403      -93.505692      -31.115175
 H         -34.560631      -91.900528      -27.030926
 H         -36.134094      -91.575974      -27.607342
 H         -33.408649      -91.150948      -30.775402
 H         -32.589581      -91.696663      -29.266191
 H         -34.290539      -90.114113      -28.798569
 H         -35.535915      -90.856621      -29.632191
