20
 generated by VMD
 C          -2.307138      -16.904469        2.831896
 N          -2.418047      -16.352154        1.865452
 H          -4.476633      -15.827257        0.140889
 H          -4.404510      -17.112606       -1.068652
 C          -5.040822      -16.643112       -0.268452
 C          -6.287969      -15.994196       -0.940406
 C          -5.411180      -17.627127        0.825653
 C          -7.357181      -17.052078       -1.344191
 C          -6.409100      -18.623476        0.329182
 C          -7.642539      -17.976774       -0.223066
 H          -5.875761      -15.444776       -1.815749
 H          -6.737829      -15.211518       -0.320736
 H          -4.501762      -18.091520        1.135667
 H          -5.668740      -17.139727        1.719474
 H          -6.804030      -17.627068       -2.123199
 H          -8.278722      -16.681852       -1.841198
 H          -6.686792      -19.373014        1.039031
 H          -5.922008      -19.152874       -0.499074
 H          -8.358535      -18.771544       -0.422616
 H          -8.013353      -17.331074        0.578458
