20
 generated by VMD
 C         -29.106569      -88.096657      -25.139448
 N         -28.779854      -87.709930      -26.149387
 H         -31.385065      -90.027504      -27.441992
 H         -29.320560      -88.440849      -24.099140
 C         -32.255760      -89.511261      -27.092960
 C         -32.769669      -89.188217      -25.694502
 C         -33.163197      -89.218781      -28.303249
 C         -33.772076      -87.974045      -25.538973
 C         -34.076756      -87.957703      -28.071520
 C         -34.712975      -87.909363      -26.709290
 H         -31.826075      -89.053238      -25.059877
 H         -33.101833      -90.071709      -25.195505
 H         -32.539989      -89.012138      -29.225105
 H         -33.862080      -89.961487      -28.683302
 H         -33.206444      -87.064987      -25.555979
 H         -34.246357      -88.159187      -24.502514
 H         -34.822224      -87.919395      -28.826790
 H         -33.457031      -87.023811      -28.213156
 H         -35.193592      -87.022438      -26.583271
 H         -35.417103      -88.670296      -26.667812
