20
 generated by VMD
 C         -39.639347     -105.584251      -37.021889
 N         -40.476799     -106.297356      -37.389179
 H         -38.957447     -107.798683      -34.815746
 H         -38.917564     -104.754890      -36.901718
 C         -39.307598     -108.631828      -34.280796
 C         -38.398869     -109.047760      -33.220661
 C         -40.665131     -109.109772      -34.397972
 C         -39.028404     -109.173775      -31.861418
 C         -41.390350     -109.378250      -33.099167
 C         -40.394352     -110.028648      -32.048088
 H         -37.684242     -108.194191      -33.061573
 H         -37.754425     -109.964134      -33.475674
 H         -41.210804     -108.302177      -34.792328
 H         -40.823799     -110.016716      -34.951424
 H         -39.340710     -108.250259      -31.400131
 H         -38.260029     -109.614929      -31.326050
 H         -42.222134     -110.081749      -33.332092
 H         -41.755692     -108.342278      -32.706520
 H         -40.831360     -110.073303      -31.085703
 H         -40.086586     -111.113846      -32.360435
