20
 generated by VMD
 C         -68.863083     -185.902252      -66.228577
 N         -68.459404     -186.161850      -67.266365
 H         -69.325035     -183.008347      -63.513538
 H         -69.328583     -185.610291      -65.265709
 C         -69.342140     -183.808411      -62.756523
 C         -70.400116     -184.855896      -62.656372
 C         -67.953651     -183.883759      -62.209984
 C         -70.175919     -185.813370      -61.469883
 C         -67.701836     -185.261765      -61.401226
 C         -68.810814     -186.340591      -61.471058
 H         -70.327896     -185.391281      -63.637020
 H         -71.355125     -184.323288      -62.583244
 H         -67.161438     -183.872330      -63.006123
 H         -67.904694     -183.051743      -61.469948
 H         -70.809929     -186.709961      -61.600906
 H         -70.613480     -185.326645      -60.586987
 H         -67.439743     -184.988098      -60.423866
 H         -66.783813     -185.728561      -61.812057
 H         -68.684326     -186.909134      -62.565369
 H         -68.537193     -187.116760      -60.723999
