20
 generated by VMD
 C         -38.840981     -115.792587      -35.378735
 N         -39.406715     -115.365273      -34.438354
 H         -41.293617     -115.423264      -37.105808
 H         -38.570465     -116.241219      -36.325863
 C         -42.355286     -115.719414      -37.315075
 C         -42.984802     -115.524788      -38.703789
 C         -43.374916     -115.599442      -36.215652
 C         -44.281429     -116.300735      -38.886509
 C         -44.759251     -116.204102      -36.445560
 C         -45.364227     -115.857025      -37.835400
 H         -42.263847     -115.755638      -39.441631
 H         -43.227383     -114.522102      -38.950516
 H         -42.940762     -116.130936      -35.359100
 H         -43.262455     -114.586372      -35.769718
 H         -43.983746     -117.397697      -38.804081
 H         -44.607433     -116.169464      -39.884987
 H         -45.424000     -115.907166      -35.635166
 H         -44.684582     -117.236839      -36.274883
 H         -46.213665     -116.566849      -38.161297
 H         -45.467659     -114.855774      -38.028965
