20
 generated by VMD
 C         -58.663357     -158.903091      -58.151249
 N         -58.811546     -159.670410      -57.334862
 H         -59.042870     -160.576843      -54.780846
 H         -58.570480     -158.151489      -58.931381
 C         -59.441029     -161.267700      -54.005653
 C         -58.766068     -161.526962      -52.692806
 C         -60.676811     -162.005615      -54.258408
 C         -59.593792     -161.578690      -51.365837
 C         -61.671036     -161.762894      -53.057915
 C         -61.025314     -162.250534      -51.736816
 H         -57.971565     -160.789963      -52.465870
 H         -58.094933     -162.376968      -52.901703
 H         -61.226170     -161.783066      -55.141151
 H         -60.332138     -163.144379      -54.324154
 H         -59.761322     -160.589996      -51.070881
 H         -59.031597     -162.082947      -50.467152
 H         -62.633614     -162.218384      -53.365627
 H         -61.753132     -160.668732      -53.013409
 H         -61.686417     -161.998703      -50.905098
 H         -60.868111     -163.367126      -51.579445
