20
 generated by VMD
 C         -14.088491      -28.793407       -7.412338
 N         -13.306555      -28.957109       -8.187049
 H         -11.776595      -30.505674       -4.788331
 H         -10.273867      -29.887939       -3.968375
 C         -10.760722      -30.788301       -4.338869
 C          -9.927337      -31.398771       -5.524806
 C         -10.994285      -31.844742       -3.214741
 C          -8.704371      -32.149429       -5.007279
 C          -9.717508      -32.473492       -2.680221
 C          -8.862811      -33.101097       -3.823982
 H          -9.607764      -30.587772       -6.225903
 H         -10.565872      -32.074215       -6.153801
 H         -11.477833      -31.273684       -2.382525
 H         -11.740973      -32.567841       -3.572422
 H          -7.883857      -31.399866       -4.771466
 H          -8.298829      -32.863735       -5.769305
 H         -10.008241      -33.254311       -2.024726
 H          -9.025223      -31.824999       -2.077867
 H          -7.862392      -33.418793       -3.449726
 H          -9.382444      -33.996784       -4.254596
