20
 generated by VMD
 C         -73.868851     -200.474518      -65.600563
 N         -73.107536     -201.128113      -65.026062
 H         -72.823265     -197.690445      -66.589561
 H         -74.613770     -200.026138      -66.255714
 C         -73.267075     -197.214264      -67.436729
 C         -73.968956     -195.942719      -67.269295
 C         -72.753319     -197.771072      -68.772781
 C         -73.808395     -195.069260      -68.514488
 C         -73.817177     -197.340576      -69.820992
 C         -74.291878     -195.925980      -69.760986
 H         -73.571938     -195.192062      -66.465805
 H         -74.965721     -196.255722      -67.146912
 H         -71.835510     -197.273422      -69.042397
 H         -72.716095     -198.831711      -68.761284
 H         -72.713745     -194.865814      -68.668266
 H         -74.222466     -194.052505      -68.512161
 H         -74.657845     -198.027008      -69.851639
 H         -73.303207     -197.482376      -70.775986
 H         -74.079193     -195.280045      -70.608788
 H         -75.494377     -195.917603      -69.593170
