20
 generated by VMD
 C         -28.513237      -74.108498      -18.561806
 N         -29.266211      -73.446259      -18.020683
 H         -25.393063      -72.164917      -18.806540
 H         -27.586735      -74.770630      -18.739496
 C         -25.522308      -72.213760      -19.897032
 C         -24.871357      -73.242790      -20.660812
 C         -25.651466      -70.801163      -20.488008
 C         -25.239944      -73.293076      -22.033964
 C         -26.311947      -71.033867      -21.928631
 C         -25.570799      -72.019600      -22.775562
 H         -25.056366      -74.335724      -20.237406
 H         -23.789209      -73.073753      -20.578394
 H         -26.325823      -70.165619      -19.938251
 H         -24.623655      -70.323715      -20.592377
 H         -26.122736      -73.976898      -22.094278
 H         -24.406441      -73.796974      -22.558392
 H         -26.245773      -70.051422      -22.450264
 H         -27.278009      -71.361008      -21.656555
 H         -26.097557      -72.050476      -23.807756
 H         -24.554188      -71.625862      -23.011354
