20
 generated by VMD
 C         -12.257219      -27.759644       -1.483400
 N         -11.812738      -26.803425       -1.862991
 H         -10.401352      -25.969978       -4.500823
 H          -8.946164      -25.879763       -5.488614
 C          -9.342259      -26.085238       -4.503644
 C          -9.035644      -27.592794       -4.315665
 C          -8.654263      -25.207764       -3.430645
 C          -7.523132      -27.930046       -4.186212
 C          -7.141636      -25.598080       -3.222523
 C          -6.979877      -27.080717       -2.993084
 H          -9.361197      -28.133387       -5.306359
 H          -9.483341      -27.952400       -3.410159
 H          -8.759526      -24.149557       -3.752831
 H          -9.145813      -25.368830       -2.472112
 H          -6.986920      -27.568293       -5.054600
 H          -7.433393      -28.995087       -3.962797
 H          -6.781506      -24.991446       -2.425624
 H          -6.677329      -25.322414       -4.154934
 H          -5.889186      -27.294497       -2.874260
 H          -7.504220      -27.382376       -2.094622
