20
 generated by VMD
 C         -58.749866     -160.119446      -56.977245
 N         -58.423820     -159.950714      -58.133701
 H         -58.710789     -162.532883      -54.913620
 H         -58.987053     -160.361023      -55.916409
 C         -59.522514     -162.240479      -54.253986
 C         -59.133270     -162.374619      -52.829075
 C         -60.869652     -162.430084      -54.674171
 C         -60.238037     -162.072235      -51.723816
 C         -61.885239     -161.942627      -53.580940
 C         -61.526344     -162.461960      -52.230526
 H         -58.248039     -161.715744      -52.650902
 H         -58.787365     -163.385818      -52.655380
 H         -61.157455     -161.935303      -55.665398
 H         -60.977825     -163.457138      -54.950962
 H         -60.068718     -161.013763      -51.430683
 H         -60.045757     -162.832123      -50.830215
 H         -62.874882     -162.469437      -53.652813
 H         -61.980030     -160.815186      -53.687500
 H         -62.350780     -162.145798      -51.486172
 H         -61.550941     -163.562729      -52.309559
