20
 generated by VMD
 C         -40.480862     -106.873871      -37.510075
 N         -39.397842     -106.646561      -37.856438
 H         -38.631374     -108.067459      -34.341167
 H         -41.519794     -106.905373      -37.293686
 C         -39.282448     -108.917053      -34.060726
 C         -38.639248     -110.052841      -33.257431
 C         -40.752842     -108.806328      -34.298428
 C         -39.712460     -110.593155      -32.141003
 C         -41.657173     -109.437134      -33.290962
 C         -41.050434     -110.642281      -32.729874
 H         -37.910549     -109.739075      -32.533596
 H         -38.259983     -110.893326      -33.835266
 H         -41.038372     -107.757866      -34.354164
 H         -40.987988     -109.199715      -35.326172
 H         -39.837482     -109.970024      -31.266375
 H         -39.254181     -111.530083      -31.715445
 H         -42.726677     -109.742523      -33.673164
 H         -41.674999     -108.632393      -32.477325
 H         -41.824661     -111.017044      -31.911415
 H         -41.063023     -111.424156      -33.455395
