20
 generated by VMD
 C         -12.304932      -30.758308       -8.464800
 N         -11.955198      -30.605541       -7.414628
 H         -11.698620      -34.633110       -7.945541
 H         -12.783689      -33.956524       -6.717178
 C         -11.871402      -34.583721       -6.816843
 C         -10.703219      -33.809078       -6.151217
 C         -12.111979      -35.955936       -6.026410
 C         -11.106579      -33.591942       -4.647023
 C         -12.397439      -35.761723       -4.539977
 C         -11.290797      -34.939308       -3.932409
 H         -10.632760      -32.818775       -6.643033
 H          -9.721401      -34.289677       -6.202900
 H         -12.940446      -36.436577       -6.522691
 H         -11.208208      -36.578388       -6.181643
 H         -12.080455      -33.056423       -4.575380
 H         -10.282727      -33.077049       -4.131563
 H         -12.347256      -36.707836       -4.032201
 H         -13.377050      -35.233467       -4.290851
 H         -11.481106      -34.866264       -2.898525
 H         -10.336617      -35.517750       -3.982871
