20
 generated by VMD
 C         -12.360934      -32.086334       -8.714301
 N         -12.677981      -31.040565       -8.796631
 H         -10.458988      -34.644299       -7.452802
 H         -11.412789      -33.593842       -6.347261
 C         -11.116370      -34.657444       -6.506895
 C         -10.278141      -35.201134       -5.338339
 C         -12.377397      -35.513363       -6.751153
 C         -11.270806      -35.403320       -4.126463
 C         -13.273072      -35.635738       -5.528534
 C         -12.516508      -36.261967       -4.362401
 H          -9.480041      -34.541817       -5.030024
 H          -9.858698      -36.226028       -5.589884
 H         -12.888407      -35.084526       -7.615090
 H         -12.054037      -36.501186       -7.100908
 H         -11.642212      -34.435734       -3.789952
 H         -10.653705      -35.777527       -3.361392
 H         -14.155946      -36.200047       -5.765328
 H         -13.582587      -34.610126       -5.270354
 H         -13.104624      -36.297974       -3.467489
 H         -12.258445      -37.305180       -4.641455
