20
 generated by VMD
 C          -0.863882      -13.427377        0.842252
 N          -0.278852      -13.271399       -0.090336
 H          -4.574240      -13.403344        2.128027
 H          -5.632412      -13.346717        0.801295
 C          -5.239918      -13.978590        1.566073
 C          -6.387664      -14.526480        2.418626
 C          -4.420695      -15.155552        1.115969
 C          -7.223494      -15.662056        1.808840
 C          -5.243392      -16.235329        0.403751
 C          -6.320827      -16.797344        1.337235
 H          -7.066031      -13.768117        2.719621
 H          -6.068798      -14.846166        3.400669
 H          -3.689605      -14.878845        0.381161
 H          -3.799491      -15.571214        1.899555
 H          -7.769696      -15.262556        0.915425
 H          -8.018606      -15.998405        2.492225
 H          -4.570497      -17.047840        0.103585
 H          -5.725828      -15.853639       -0.523396
 H          -6.831554      -17.700823        1.006656
 H          -5.766603      -17.101664        2.216929
