20
 generated by VMD
 C         -43.533562     -121.190392      -36.114418
 N         -43.606262     -120.546028      -35.166130
 H         -44.917820     -122.503876      -39.565678
 H         -43.433758     -121.748573      -37.002644
 C         -44.765594     -121.334183      -39.420364
 C         -43.369091     -120.736366      -39.696480
 C         -45.851433     -120.426514      -38.835785
 C         -43.406590     -119.326195      -40.198952
 C         -45.720688     -119.038742      -39.401886
 C         -44.396515     -118.464531      -39.414883
 H         -42.920052     -121.312607      -40.513432
 H         -42.832836     -120.746460      -38.795940
 H         -46.801220     -120.958679      -39.019413
 H         -45.749649     -120.368988      -37.786800
 H         -43.637978     -119.294319      -41.322693
 H         -42.362980     -118.876266      -40.019722
 H         -46.392864     -118.435844      -38.688057
 H         -46.198292     -118.891808      -40.495853
 H         -44.430813     -117.409859      -39.746258
 H         -44.089081     -118.464523      -38.333511
