20
 generated by VMD
 C          -2.860699      -17.824286        2.780353
 N          -2.454535      -17.539307        1.779580
 H          -5.240638      -18.997437        0.970321
 H          -5.361868      -20.013773       -0.453527
 C          -5.776896      -19.133101        0.034009
 C          -5.751722      -17.843710       -0.766182
 C          -7.269378      -19.413759        0.346202
 C          -6.519847      -17.885803       -2.081768
 C          -8.109385      -19.426592       -0.946414
 C          -7.925419      -18.200804       -1.858649
 H          -4.733612      -17.522310       -0.982648
 H          -6.274829      -17.003820       -0.223137
 H          -7.424026      -20.407099        0.856924
 H          -7.595191      -18.511545        1.038440
 H          -6.030620      -18.684221       -2.662558
 H          -6.481884      -16.870001       -2.555592
 H          -9.136680      -19.584803       -0.717348
 H          -7.668111      -20.251108       -1.514209
 H          -8.474613      -18.295637       -2.811143
 H          -8.321838      -17.330801       -1.352839
