20
 generated by VMD
 C         -28.441832      -84.649857      -26.381439
 N         -28.019276      -83.737740      -27.017609
 H         -31.293901      -84.541740      -26.200573
 H         -28.956028      -85.313347      -25.784588
 C         -31.363535      -85.498878      -25.809309
 C         -31.527369      -85.624619      -24.322371
 C         -31.891994      -86.519730      -26.659473
 C         -32.893818      -86.087959      -23.926722
 C         -33.268303      -87.112015      -26.216526
 C         -33.349728      -87.371696      -24.660532
 H         -31.156553      -84.713707      -23.858561
 H         -30.787552      -86.410927      -24.053810
 H         -31.878036      -86.161659      -27.740801
 H         -31.212393      -87.373474      -26.598608
 H         -33.642876      -85.335510      -23.943171
 H         -32.851433      -86.104462      -22.789167
 H         -33.548164      -88.038406      -26.754622
 H         -34.107288      -86.489799      -26.408598
 H         -34.325336      -87.630592      -24.535385
 H         -32.748497      -88.174034      -24.294603
