20
 generated by VMD
 C         -50.043045     -131.235611      -46.583618
 N         -50.284798     -131.620911      -47.707256
 H         -48.010551     -132.167419      -43.842628
 H         -49.483006     -131.141617      -45.601707
 C         -48.947960     -132.268570      -43.212872
 C         -49.618767     -133.555695      -43.229122
 C         -48.731312     -131.650543      -41.863640
 C         -48.865238     -134.590378      -42.370163
 C         -47.962528     -132.591019      -40.944344
 C         -48.467197     -134.031052      -40.936527
 H         -49.721855     -133.894501      -44.202862
 H         -50.613243     -133.524948      -42.726597
 H         -48.184250     -130.751892      -41.942997
 H         -49.624184     -131.520355      -41.307674
 H         -47.875404     -134.770020      -42.891579
 H         -49.424004     -135.591965      -42.296989
 H         -48.065704     -132.273651      -39.917866
 H         -46.947529     -132.514282      -41.264133
 H         -47.818859     -134.732666      -40.317410
 H         -49.337067     -134.018875      -40.336437
