20
 generated by VMD
 C         -40.726341     -100.198235      -30.093073
 N         -40.796238     -100.336624      -28.952591
 H         -37.330093     -100.032288      -30.224216
 H         -40.716969      -99.867355      -31.058357
 C         -36.406387      -99.938843      -30.872372
 C         -36.080139      -99.728256      -32.292366
 C         -35.395954      -99.772346      -29.766020
 C         -35.037064      -98.583076      -32.432873
 C         -34.299656      -98.585411      -30.013847
 C         -33.734581      -98.630890      -31.473854
 H         -36.954899      -99.445442      -32.826668
 H         -35.691738     -100.681274      -32.720024
 H         -35.859447      -99.695641      -28.816080
 H         -34.818287     -100.732025      -29.808558
 H         -35.657600      -97.674095      -32.312988
 H         -34.662376      -98.512817      -33.432079
 H         -33.504120      -98.683037      -29.287455
 H         -34.968487      -97.652168      -30.028179
 H         -33.085114      -97.693474      -31.537035
 H         -33.202961      -99.547539      -31.557699
