20
 generated by VMD
 C         -40.545433     -106.268318      -37.102402
 N         -39.744251     -106.769714      -37.769115
 H         -38.256207     -107.951988      -34.362862
 H         -41.428860     -105.853073      -36.648979
 C         -39.076981     -108.553040      -33.933975
 C         -38.576420     -109.850700      -33.208267
 C         -40.504208     -108.877892      -34.497890
 C         -39.499725     -110.125366      -31.994421
 C         -41.423229     -109.283188      -33.354649
 C         -40.925224     -110.344460      -32.527267
 H         -37.627731     -109.530365      -32.730888
 H         -38.589050     -110.688583      -33.899956
 H         -40.952412     -108.045906      -34.997425
 H         -40.361946     -109.745209      -35.278290
 H         -39.582382     -109.239983      -31.240347
 H         -39.189007     -111.086296      -31.348040
 H         -42.375370     -109.587318      -33.860859
 H         -41.500313     -108.412148      -32.733288
 H         -41.633419     -110.424049      -31.641582
 H         -41.007236     -111.231346      -33.025684
