20
 generated by VMD
 C         -70.300400     -182.793472      -64.776024
 N         -70.492676     -183.667480      -65.507866
 H         -67.726311     -181.040054      -63.046066
 H         -70.212578     -181.932022      -64.085716
 C         -67.610962     -181.032150      -62.004311
 C         -67.807411     -182.343063      -61.193783
 C         -67.044411     -179.874664      -61.184601
 C         -66.507217     -182.745865      -60.382492
 C         -65.750916     -180.347412      -60.417427
 C         -65.914017     -181.625534      -59.597610
 H         -68.025818     -183.209610      -61.851963
 H         -68.657738     -182.141129      -60.534443
 H         -66.864494     -178.929382      -61.908062
 H         -67.878052     -179.675079      -60.500980
 H         -65.555901     -183.040726      -60.989738
 H         -66.689529     -183.600449      -59.694214
 H         -65.347572     -179.595947      -59.721821
 H         -65.053680     -180.540649      -61.231327
 H         -64.942131     -181.944733      -59.069046
 H         -66.563904     -181.347504      -58.831879
