20
 generated by VMD
 C          -5.262542      -21.103939        1.599355
 N          -5.459234      -20.677637        2.616120
 H          -5.056409      -18.706223       -0.617016
 H          -5.654556      -20.284657       -0.073875
 C          -5.785277      -19.452879       -0.912877
 C          -5.582483      -20.070395       -2.242718
 C          -7.131974      -18.803761       -0.711908
 C          -6.662621      -21.029219       -2.637618
 C          -8.243442      -19.792898       -1.179451
 C          -8.038486      -20.413086       -2.578410
 H          -4.616205      -20.608107       -2.167234
 H          -5.509859      -19.319674       -2.964800
 H          -7.368420      -18.424643        0.339763
 H          -7.292742      -17.879114       -1.286102
 H          -6.666233      -21.941505       -2.023652
 H          -6.410621      -21.347757       -3.672472
 H          -9.229708      -19.300064       -1.119743
 H          -8.289541      -20.555826       -0.421091
 H          -8.739295      -21.170521       -2.811803
 H          -8.136146      -19.631601       -3.305107
