20
 generated by VMD
 C         -50.228817     -131.747040      -46.859554
 N         -50.078236     -132.068024      -47.912380
 H         -48.551693     -131.438400      -43.844959
 H         -50.256523     -131.764343      -45.794582
 C         -48.831184     -132.212662      -43.075588
 C         -49.582649     -133.517731      -43.504364
 C         -48.685928     -131.960876      -41.606960
 C         -49.091774     -134.692719      -42.646164
 C         -48.153259     -133.172165      -40.814091
 C         -49.028015     -134.457611      -41.188976
 H         -49.425209     -133.589294      -44.627861
 H         -50.584240     -133.346146      -43.339031
 H         -47.842434     -131.209427      -41.753895
 H         -49.580864     -131.542847      -41.224625
 H         -48.157482     -134.986069      -43.136322
 H         -49.846024     -135.455032      -42.852741
 H         -48.294136     -133.038177      -39.789707
 H         -47.141994     -133.489014      -41.167946
 H         -48.572582     -135.388321      -40.829025
 H         -49.934097     -134.536392      -40.526024
