20
 generated by VMD
 C         -13.342432      -44.522663       -6.541609
 N         -14.038508      -44.084431       -5.771460
 H         -15.324092      -44.869450       -8.968246
 H         -14.326523      -43.927692      -10.191311
 C         -15.337485      -44.410019       -9.944662
 C         -16.456968      -43.348186       -9.901253
 C         -15.539059      -45.557693      -10.947716
 C         -16.829630      -42.968548      -11.295247
 C         -16.145636      -45.198360      -12.321300
 C         -17.287514      -44.213516      -12.086435
 H         -16.194891      -42.511528       -9.286904
 H         -17.357643      -43.825760       -9.483021
 H         -14.573475      -46.080494      -11.132763
 H         -16.345402      -46.219696      -10.531522
 H         -16.073908      -42.385571      -11.828499
 H         -17.711832      -42.322514      -11.180728
 H         -16.554394      -46.032940      -12.791398
 H         -15.284862      -44.807758      -12.927420
 H         -17.737829      -43.898636      -13.049621
 H         -18.137983      -44.689251      -11.470950
