20
 generated by VMD
 C         -20.481977      -57.130722      -16.921116
 N         -20.794477      -56.438038      -16.084286
 H         -22.259920      -59.830975      -17.816526
 H         -20.021404      -57.838043      -17.773331
 C         -22.115259      -60.190636      -16.832457
 C         -22.644016      -59.452492      -15.594623
 C         -21.732359      -61.628380      -16.763290
 C         -22.077682      -59.998192      -14.343382
 C         -20.941984      -61.982601      -15.539711
 C         -21.487013      -61.464024      -14.227407
 H         -23.700127      -59.544224      -15.532478
 H         -22.521656      -58.412479      -15.642264
 H         -22.737696      -62.106468      -16.705666
 H         -21.193909      -61.902412      -17.713217
 H         -22.753471      -59.832134      -13.433979
 H         -21.291925      -59.249817      -14.125085
 H         -20.021599      -61.383820      -15.669569
 H         -20.572807      -63.016563      -15.561263
 H         -22.359169      -62.063896      -13.892880
 H         -20.680691      -61.439369      -13.475801
