20
 generated by VMD
 C         -72.047630     -199.171570      -64.917572
 N         -70.902756     -199.044907      -65.025864
 H         -72.116798     -196.481598      -66.485008
 H         -73.027290     -199.532852      -64.644417
 C         -72.675941     -195.904022      -67.218407
 C         -72.867264     -194.522705      -66.866753
 C         -73.011597     -196.449509      -68.521561
 C         -73.723320     -193.843582      -67.984612
 C         -74.426399     -196.031738      -69.010246
 C         -74.904572     -194.661835      -68.522545
 H         -71.865242     -194.193146      -66.961273
 H         -73.444633     -194.338013      -65.880363
 H         -72.224701     -196.095612      -69.228645
 H         -72.947899     -197.534256      -68.495178
 H         -73.053169     -193.608643      -68.821259
 H         -74.066513     -192.933090      -67.561440
 H         -75.170692     -196.686035      -68.597466
 H         -74.388435     -196.149002      -70.135788
 H         -75.266678     -194.079315      -69.420830
 H         -75.601463     -194.621643      -67.646317
