20
 generated by VMD
 C         -56.230057     -149.447403      -46.032139
 N         -56.265362     -150.482208      -45.460281
 H         -53.557320     -147.976685      -47.840767
 H         -56.374569     -148.516937      -46.541862
 C         -53.960449     -147.430832      -48.705318
 C         -53.025337     -147.758698      -49.833366
 C         -54.649574     -146.086792      -48.509888
 C         -53.488651     -147.097809      -51.208706
 C         -55.382877     -145.710770      -49.870365
 C         -54.389660     -145.721191      -51.104599
 H         -53.000336     -148.793823      -49.861572
 H         -51.900860     -147.524078      -49.624847
 H         -55.321621     -146.160400      -47.733681
 H         -53.978004     -145.354126      -48.083675
 H         -54.215351     -147.717636      -51.722519
 H         -52.775272     -146.883408      -51.939182
 H         -55.657047     -144.611633      -49.696877
 H         -56.272045     -146.358032      -49.892933
 H         -54.867390     -145.596161      -52.113331
 H         -53.733204     -144.847107      -50.966606
