20
 generated by VMD
 C         -30.468983      -75.535957      -22.655621
 N         -31.372408      -75.053978      -22.056547
 H         -28.467180      -78.125153      -21.122248
 H         -29.655960      -76.099701      -23.230101
 C         -27.776251      -77.416000      -21.528484
 C         -26.751740      -78.004112      -22.481331
 C         -27.730083      -76.143784      -20.704592
 C         -25.875851      -76.860741      -23.021040
 C         -26.841742      -75.106262      -21.490932
 C         -25.495438      -75.847778      -21.928747
 H         -27.360147      -78.473366      -23.265087
 H         -26.124010      -78.849060      -21.935764
 H         -28.709990      -75.720528      -20.409996
 H         -27.193781      -76.321457      -19.697628
 H         -26.250990      -76.278343      -23.839703
 H         -24.972750      -77.380875      -23.308514
 H         -26.537100      -74.174896      -20.937519
 H         -27.307833      -74.687569      -22.368385
 H         -24.711151      -75.166229      -22.359194
 H         -24.953932      -76.364525      -21.187000
