20
 generated by VMD
 C         -58.573006     -161.815460      -56.479485
 N         -57.947933     -160.871597      -56.077328
 H         -59.437077     -164.808395      -55.242035
 H         -59.170300     -162.649582      -56.875935
 C         -60.287498     -164.297241      -54.815228
 C         -60.010475     -163.656433      -53.549870
 C         -61.634369     -164.410065      -55.261578
 C         -60.710869     -162.316391      -53.382523
 C         -62.508434     -163.179962      -54.770699
 C         -62.154728     -162.514450      -53.433086
 H         -58.960281     -163.533401      -53.366562
 H         -60.125519     -164.377960      -52.707428
 H         -61.660282     -164.307419      -56.291752
 H         -62.090366     -165.396347      -54.971397
 H         -60.429989     -161.606323      -54.234489
 H         -60.388988     -161.936813      -52.419075
 H         -63.612171     -163.541519      -54.669563
 H         -62.592865     -162.385925      -55.604092
 H         -62.701710     -161.571060      -53.291039
 H         -62.373608     -163.250763      -52.703159
