20
 generated by VMD
 C         -68.264320     -179.639420      -58.669300
 N         -67.744461     -179.616501      -57.610104
 H         -66.287018     -176.660400      -59.762627
 H         -68.644836     -179.655380      -59.663151
 C         -65.619347     -175.835510      -59.743710
 C         -66.049400     -174.775131      -60.745407
 C         -64.249702     -176.157761      -59.492474
 C         -65.135994     -173.500504      -60.585350
 C         -63.259548     -174.922195      -59.582512
 C         -63.640026     -173.914764      -60.727505
 H         -67.032417     -174.440521      -60.552059
 H         -65.997795     -175.334229      -61.652180
 H         -64.142143     -176.483871      -58.465324
 H         -63.792797     -176.993011      -60.153156
 H         -65.381943     -172.932129      -59.739517
 H         -65.427284     -172.935257      -61.426075
 H         -62.285927     -175.466797      -59.720692
 H         -63.222954     -174.398849      -58.653305
 H         -63.014774     -173.024704      -60.628815
 H         -63.198006     -174.343964      -61.642960
