20
 generated by VMD
 C         -68.671753     -186.332062      -67.811333
 N         -68.205551     -187.345566      -67.526360
 H         -68.264252     -187.337143      -64.427246
 H         -69.084770     -185.434326      -68.231369
 C         -69.113991     -187.578110      -63.761608
 C         -68.901428     -187.357635      -62.220901
 C         -70.464340     -187.493500      -64.272522
 C         -69.957176     -188.236267      -61.406689
 C         -71.605209     -187.934052      -63.393761
 C         -71.379288     -187.873764      -61.892761
 H         -69.058975     -186.372864      -61.766804
 H         -67.858421     -187.493210      -61.946552
 H         -70.583328     -186.404526      -64.585854
 H         -70.464813     -187.971817      -65.321861
 H         -69.974869     -187.893234      -60.305489
 H         -69.626961     -189.261841      -61.501305
 H         -71.940239     -188.951080      -63.567032
 H         -72.534218     -187.410278      -63.680920
 H         -71.651085     -186.862106      -61.541721
 H         -72.238670     -188.502731      -61.430355
