20
 generated by VMD
 C         -59.749790     -152.148026      -50.595589
 N         -59.182056     -152.937378      -50.051159
 H         -56.823299     -150.956055      -48.676647
 H         -60.205204     -151.339813      -51.160828
 C         -55.833168     -150.851181      -49.163479
 C         -55.041737     -151.988312      -49.728825
 C         -55.359051     -149.442215      -49.260017
 C         -54.426975     -151.513535      -51.113125
 C         -54.866802     -149.000809      -50.576565
 C         -53.767151     -150.062332      -51.061485
 H         -55.683357     -152.828415      -49.834244
 H         -54.220253     -152.348907      -49.086868
 H         -56.179775     -148.717926      -48.950523
 H         -54.587826     -149.251099      -48.528534
 H         -55.262726     -151.440811      -51.817070
 H         -53.832199     -152.323227      -51.503700
 H         -54.332821     -147.959137      -50.637032
 H         -55.641880     -149.096252      -51.248638
 H         -53.364788     -149.742722      -52.081375
 H         -52.840221     -150.100204      -50.476616
