20
 generated by VMD
 C         -61.499691     -155.271652      -53.557472
 N         -61.995243     -155.312592      -54.554932
 H         -58.423485     -155.010895      -52.074165
 H         -61.008854     -155.462265      -52.601173
 C         -57.464867     -154.934982      -51.618671
 C         -57.304623     -154.489746      -50.245827
 C         -56.293175     -155.042297      -52.493629
 C         -56.040325     -154.830826      -49.530014
 C         -55.047215     -155.545074      -51.671467
 C         -54.894897     -154.656143      -50.362301
 H         -58.277340     -154.762833      -49.704002
 H         -57.263325     -153.393250      -50.229080
 H         -56.502548     -155.861343      -53.277580
 H         -55.961254     -154.153030      -53.037220
 H         -56.040192     -155.826736      -49.117302
 H         -56.017010     -154.156143      -48.637337
 H         -54.095047     -155.463303      -52.316696
 H         -55.134903     -156.583878      -51.484245
 H         -53.959351     -155.065155      -49.849377
 H         -54.687130     -153.638397      -50.537731
