20
 generated by VMD
 C         -39.827839     -105.409225      -37.194508
 N         -40.056370     -104.281532      -36.986435
 H         -39.510319     -108.296730      -35.469559
 H         -39.577858     -106.332771      -37.642879
 C         -39.735435     -108.517883      -34.393124
 C         -38.469463     -108.187737      -33.479626
 C         -40.368896     -109.796432      -33.824326
 C         -38.808838     -108.052872      -32.030415
 C         -40.853848     -109.459892      -32.367592
 C         -39.687859     -109.216682      -31.499550
 H         -37.858105     -107.233154      -33.855827
 H         -37.750977     -109.051735      -33.505199
 H         -41.185036     -110.091148      -34.503338
 H         -39.696011     -110.592201      -33.856102
 H         -39.292870     -107.160217      -31.854868
 H         -37.956570     -108.147194      -31.363321
 H         -41.300201     -110.400635      -31.866360
 H         -41.700558     -108.692215      -32.211876
 H         -39.968189     -108.953384      -30.368080
 H         -39.111851     -110.127174      -31.371374
