20
 generated by VMD
 C         -30.824055      -78.146141      -25.920233
 N         -31.826481      -77.604507      -25.950153
 H         -29.135828      -77.783943      -22.756199
 H         -29.816835      -78.586952      -26.271248
 C         -28.873161      -78.850807      -22.876778
 C         -27.413712      -79.023911      -23.275990
 C         -29.713144      -80.050041      -22.507240
 C         -26.739819      -79.798088      -22.179085
 C         -29.006968      -80.773285      -21.339941
 C         -27.493908      -81.052704      -21.623058
 H         -26.856735      -78.004738      -23.332678
 H         -27.487762      -79.640785      -24.270126
 H         -30.663343      -79.782410      -22.139172
 H         -29.826460      -80.656158      -23.465153
 H         -26.394569      -79.131020      -21.373882
 H         -25.743427      -80.267220      -22.537041
 H         -29.398788      -81.806602      -21.222851
 H         -29.237520      -80.385109      -20.386276
 H         -27.040424      -81.383591      -20.720528
 H         -27.370159      -81.883362      -22.285849
