20
 generated by VMD
 C         -30.434975      -92.787544      -26.160801
 N         -31.214760      -92.601364      -25.344725
 H         -33.024761      -90.176941      -26.265617
 H         -29.690744      -93.032959      -26.807552
 C         -33.379082      -90.677979      -27.172031
 C         -34.148922      -91.957886      -27.264954
 C         -33.172676      -90.055626      -28.475330
 C         -35.445339      -91.662025      -28.063059
 C         -34.455158      -89.758110      -29.216312
 C         -35.164440      -91.140701      -29.541166
 H         -34.527946      -92.194214      -26.158646
 H         -33.414299      -92.714973      -27.667305
 H         -32.697201      -89.078468      -28.361904
 H         -32.514774      -90.696220      -29.116137
 H         -36.117287      -91.073677      -27.474331
 H         -35.938622      -92.663055      -28.238789
 H         -34.228260      -89.299118      -30.197208
 H         -35.250061      -89.235420      -28.666122
 H         -36.192490      -91.134209      -29.823557
 H         -34.556065      -91.798119      -30.211962
