20
 generated by VMD
 C         -40.823181     -104.004234      -36.980495
 N         -41.019642     -104.877937      -36.266502
 H         -39.476425     -105.575157      -34.017200
 H         -40.822678     -103.026985      -37.422218
 C         -39.027489     -106.278671      -33.388351
 C         -37.783672     -106.044380      -32.632034
 C         -39.724094     -107.660294      -33.419170
 C         -37.637108     -106.769447      -31.339518
 C         -39.567471     -108.324081      -32.040134
 C         -38.111870     -108.167168      -31.533672
 H         -37.723206     -104.977020      -32.385540
 H         -37.014034     -106.358765      -33.300262
 H         -40.828106     -107.534843      -33.530060
 H         -39.258564     -108.141006      -34.363777
 H         -38.182327     -106.426933      -30.510712
 H         -36.609066     -106.797012      -31.061934
 H         -39.851849     -109.350700      -32.041340
 H         -40.183571     -107.685638      -31.362644
 H         -38.103497     -108.634598      -30.479080
 H         -37.523731     -108.715393      -32.181061
