20
 generated by VMD
 C         -30.797047      -75.071053      -22.693529
 N         -31.263195      -75.509430      -21.705523
 H         -28.798782      -77.060326      -21.891228
 H         -30.567635      -74.305534      -23.526423
 C         -27.808796      -77.049126      -21.462152
 C         -26.693270      -77.799828      -22.108189
 C         -27.401155      -75.860794      -20.658018
 C         -25.783138      -76.815292      -23.000170
 C         -26.574726      -74.874474      -21.411423
 C         -25.361322      -75.569267      -22.172678
 H         -27.174181      -78.575134      -22.873484
 H         -26.154266      -78.351204      -21.209654
 H         -28.328594      -75.263000      -20.301477
 H         -26.907314      -76.086761      -19.728914
 H         -26.384840      -76.477173      -23.864641
 H         -24.868307      -77.246635      -23.425838
 H         -26.138865      -74.034401      -20.814039
 H         -27.204090      -74.373108      -22.204649
 H         -24.908260      -74.856003      -22.894627
 H         -24.580372      -75.991074      -21.489857
