20
 generated by VMD
 C         -12.069895      -37.492443       -7.513755
 N         -11.020890      -37.822788       -7.704523
 H         -12.382835      -41.025810       -8.378656
 H         -13.697342      -40.391655       -7.186000
 C         -13.513296      -40.881489       -8.209594
 C         -14.273137      -42.222469       -8.182739
 C         -14.083240      -40.027115       -9.293453
 C         -15.716177      -41.882259       -7.839297
 C         -15.581534      -39.757534       -9.163673
 C         -16.381445      -41.031857       -8.870855
 H         -13.848418      -42.805275       -7.350748
 H         -14.125810      -42.694611       -9.161059
 H         -13.592344      -39.069984       -9.217018
 H         -13.923511      -40.466171      -10.270756
 H         -15.778112      -41.334518       -6.927826
 H         -16.244278      -42.844669       -7.735697
 H         -15.913255      -39.290127      -10.046865
 H         -15.898601      -39.028988       -8.335732
 H         -17.447489      -40.777740       -8.695545
 H         -16.370087      -41.587509       -9.841349
