20
 generated by VMD
 C         -18.392878      -48.962399       -7.326128
 N         -19.144602      -49.766201       -7.548583
 H         -16.149553      -47.570133      -10.011039
 H         -16.479143      -49.025562      -11.053689
 C         -16.337696      -47.927994      -11.065752
 C         -15.123438      -47.525196      -12.036955
 C         -17.653202      -47.290527      -11.590857
 C         -15.459482      -47.982857      -13.439287
 C         -17.972294      -47.559303      -13.045756
 C         -16.774069      -47.378685      -13.957115
 H         -14.253649      -48.108719      -11.670534
 H         -14.956316      -46.423023      -12.071820
 H         -18.491909      -47.571823      -10.967671
 H         -17.507683      -46.217651      -11.510729
 H         -15.446392      -49.069469      -13.589229
 H         -14.644992      -47.612968      -14.053778
 H         -18.840094      -46.940723      -13.437742
 H         -18.268925      -48.555775      -13.053751
 H         -17.057833      -47.789738      -14.935358
 H         -16.609966      -46.276993      -14.122110
