20
 generated by VMD
 C         -10.941504      -33.692936       -8.560324
 N         -10.987389      -32.912991       -9.401451
 H         -11.670177      -36.933506       -8.115903
 H         -12.105032      -36.069927       -6.594847
 C         -12.353951      -36.973141       -7.252871
 C         -11.951086      -38.187412       -6.450726
 C         -13.859721      -36.955372       -7.547317
 C         -12.875971      -38.529099       -5.281773
 C         -14.731126      -37.183529       -6.354300
 C         -14.347662      -38.474842       -5.662623
 H         -10.942675      -38.117550       -6.104671
 H         -12.075995      -39.073238       -7.066046
 H         -14.104934      -36.058495       -8.048737
 H         -14.012637      -37.786354       -8.280607
 H         -12.694598      -37.803211       -4.551197
 H         -12.624352      -39.543839       -4.897022
 H         -15.803492      -37.114964       -6.533874
 H         -14.494189      -36.322887       -5.611412
 H         -14.930396      -38.568520       -4.725803
 H         -14.680639      -39.274048       -6.369452
