20
 generated by VMD
 C         -64.952225     -175.575912      -55.827133
 N         -64.413399     -176.466858      -56.290173
 H         -64.236008     -174.375351      -58.356335
 H         -65.427933     -174.719376      -55.341820
 C         -64.633286     -173.555267      -58.948570
 C         -65.405624     -172.324753      -58.384071
 C         -64.034943     -173.327927      -60.421211
 C         -64.545746     -170.987335      -58.465561
 C         -63.091263     -172.064072      -60.269054
 C         -63.889359     -170.828079      -59.767963
 H         -65.777412     -172.273926      -57.321106
 H         -66.313881     -172.039505      -58.891495
 H         -63.411873     -174.215027      -60.700485
 H         -64.777695     -173.316727      -61.262703
 H         -63.770763     -171.023193      -57.725605
 H         -65.200905     -170.137939      -58.274414
 H         -62.578781     -171.659622      -61.187256
 H         -62.246304     -172.284409      -59.637604
 H         -63.172565     -169.964890      -59.553925
 H         -64.631462     -170.472687      -60.497379
