20
 generated by VMD
 C         -31.063345      -93.594254      -26.108168
 N         -31.550528      -93.791817      -25.102089
 H         -33.892036      -94.315353      -28.118866
 H         -30.785532      -93.339951      -27.117615
 C         -34.070839      -93.199684      -28.224691
 C         -35.513706      -92.873306      -27.989058
 C         -33.308323      -92.560249      -29.351370
 C         -36.001423      -91.482742      -28.467781
 C         -33.863663      -91.101707      -29.545029
 C         -35.423565      -91.000542      -29.766314
 H         -35.516476      -92.974632      -26.903254
 H         -36.214542      -93.729935      -28.178711
 H         -32.245602      -92.480499      -28.954973
 H         -33.360985      -93.216713      -30.253407
 H         -35.730019      -90.762856      -27.712973
 H         -37.145939      -91.465050      -28.587112
 H         -33.305920      -90.817932      -30.423628
 H         -33.563709      -90.366562      -28.766176
 H         -35.552620      -89.959503      -30.057316
 H         -35.682121      -91.620842      -30.623789
