20
 generated by VMD
 C         -78.224289     -204.089722      -69.226295
 N         -79.104652     -204.006744      -69.932587
 H         -75.929070     -202.484039      -67.802933
 H         -77.536697     -204.142517      -68.462753
 C         -75.226540     -202.025406      -68.461472
 C         -75.340271     -200.708710      -68.922211
 C         -74.038315     -202.863739      -68.888298
 C         -74.772072     -200.534958      -70.321281
 C         -72.906372     -202.064468      -69.746925
 C         -73.429131     -201.075516      -70.750336
 H         -74.876640     -200.068192      -68.203484
 H         -76.411835     -200.416519      -69.027000
 H         -73.515930     -203.190704      -67.929413
 H         -74.377365     -203.794785      -69.382271
 H         -74.626221     -199.424042      -70.454643
 H         -75.497032     -200.824173      -71.068977
 H         -72.065178     -202.718323      -70.036392
 H         -72.331169     -201.382645      -69.067101
 H         -72.765068     -200.288376      -70.876663
 H         -73.520065     -201.567902      -71.726646
