20
 generated by VMD
 C         -47.423992     -137.913544      -46.091908
 N         -47.283566     -137.335403      -47.039520
 H         -50.555801     -136.858948      -44.425293
 H         -47.670509     -138.644485      -45.376740
 C         -51.275646     -137.670181      -44.664318
 C         -51.332729     -138.274673      -46.064293
 C         -52.612034     -137.357361      -44.032211
 C         -52.246319     -139.528320      -46.027042
 C         -53.445961     -138.659286      -43.996101
 C         -53.618565     -139.241226      -45.320068
 H         -50.325172     -138.602921      -46.293873
 H         -51.644581     -137.690964      -46.944843
 H         -52.478840     -136.982483      -43.018002
 H         -53.001305     -136.521072      -44.574520
 H         -51.764477     -140.333084      -45.526497
 H         -52.443859     -139.726868      -47.113506
 H         -54.501038     -138.378235      -43.673569
 H         -52.994450     -139.425369      -43.462334
 H         -54.079243     -140.182205      -45.225582
 H         -54.162033     -138.561386      -45.869701
