20
 generated by VMD
 C         -27.580965      -81.149162      -27.439676
 N         -28.651634      -81.551575      -27.588400
 H         -30.129288      -83.395668      -25.437670
 H         -26.699972      -80.767242      -27.100939
 C         -30.811354      -84.001358      -24.874708
 C         -30.488426      -84.076675      -23.423481
 C         -31.291748      -85.294205      -25.517286
 C         -31.641476      -84.630806      -22.713310
 C         -32.555069      -85.597549      -24.808767
 C         -32.439747      -85.893166      -23.298162
 H         -30.249603      -83.050781      -23.181875
 H         -29.570805      -84.700615      -23.406134
 H         -31.691963      -85.303673      -26.569490
 H         -30.526619      -86.034004      -25.285147
 H         -32.355331      -83.799110      -22.393017
 H         -31.268309      -84.927170      -21.704975
 H         -33.071171      -86.489189      -25.215870
 H         -33.273663      -84.745827      -25.059967
 H         -33.430435      -85.978523      -22.753845
 H         -31.849195      -86.722656      -23.064747
