20
 generated by VMD
 C         -41.886650     -101.510277      -32.868591
 N         -41.357784     -101.588257      -33.887520
 H         -38.771511     -103.868568      -32.562286
 H         -42.407738     -100.987312      -32.003792
 C         -37.846939     -103.367050      -32.184673
 C         -36.626400     -103.151070      -33.042870
 C         -37.621681     -103.659111      -30.577181
 C         -35.439781     -102.517853      -32.382046
 C         -36.438175     -102.905243      -30.072836
 C         -35.151333     -103.041412      -30.975225
 H         -36.904724     -102.725815      -33.989254
 H         -36.420609     -104.184158      -33.279804
 H         -38.578426     -103.446373      -30.252441
 H         -37.628475     -104.784935      -30.436247
 H         -35.589775     -101.415321      -32.405750
 H         -34.565948     -102.696419      -33.096214
 H         -35.893513     -103.228531      -29.109772
 H         -36.748878     -101.894051      -29.977840
 H         -34.319950     -102.529274      -30.390953
 H         -34.768051     -104.034294      -31.067778
