20
 generated by VMD
 C         -11.959782      -39.441059       -6.448540
 N         -11.191334      -39.127689       -7.223972
 H         -12.757204      -41.119625       -9.024774
 H         -13.924725      -39.954811       -8.700715
 C         -13.881479      -40.972347       -9.037701
 C         -14.543532      -41.863918       -7.960734
 C         -14.477260      -41.213764      -10.429380
 C         -16.076874      -41.814644       -8.008359
 C         -16.014395      -40.992722      -10.402390
 C         -16.746975      -41.916203       -9.396367
 H         -14.124162      -41.638168       -6.946607
 H         -14.171495      -42.875603       -8.039279
 H         -14.038671      -40.537388      -11.222081
 H         -14.204762      -42.191795      -10.791268
 H         -16.424059      -40.913033       -7.515982
 H         -16.546234      -42.558121       -7.304635
 H         -16.392738      -41.223270      -11.356374
 H         -16.329473      -39.922218      -10.064254
 H         -17.831512      -41.582680       -9.352966
 H         -16.656031      -42.980900       -9.727364
