20
 generated by VMD
 C         -38.486187     -111.431732      -36.223438
 N         -38.384815     -110.575035      -36.987457
 H         -40.287804     -114.312553      -35.009941
 H         -38.553104     -112.158302      -35.394218
 C         -41.388351     -114.260284      -35.133747
 C         -41.867619     -114.508362      -36.574333
 C         -42.158070     -113.353172      -34.253395
 C         -43.335567     -114.163689      -36.902790
 C         -43.659058     -113.182388      -34.745838
 C         -43.767754     -112.854462      -36.222313
 H         -41.721066     -115.472931      -37.001846
 H         -41.200047     -113.981384      -37.229736
 H         -42.140629     -113.566307      -33.152763
 H         -41.764759     -112.315781      -34.313862
 H         -43.982635     -115.006882      -36.734280
 H         -43.390942     -113.916481      -37.976315
 H         -44.039642     -112.273788      -34.052433
 H         -44.338226     -114.016479      -34.274738
 H         -44.767048     -112.724182      -36.574997
 H         -43.139561     -112.107750      -36.723507
