20
 generated by VMD
 C         -78.864586     -207.977127      -76.378090
 N         -78.448181     -207.793747      -75.282410
 H         -79.444405     -210.190002      -73.327309
 H         -79.403076     -208.260544      -77.214256
 C         -78.809212     -210.175720      -72.471405
 C         -77.492775     -209.406540      -72.381264
 C         -78.900276     -211.244293      -71.488571
 C         -77.083237     -209.081375      -70.945679
 C         -78.579857     -210.881042      -70.100868
 C         -77.258507     -210.238403      -70.021095
 H         -77.558212     -208.465317      -72.941765
 H         -76.711014     -210.001114      -72.787682
 H         -79.829430     -211.798553      -71.648613
 H         -78.075966     -211.882889      -71.796661
 H         -77.645439     -208.203964      -70.736099
 H         -76.022301     -208.892456      -70.882431
 H         -78.625694     -211.772354      -69.516212
 H         -79.434509     -210.217636      -69.707489
 H         -77.068329     -209.872696      -68.990364
 H         -76.538620     -211.071320      -70.159645
