20
 generated by VMD
 C         -78.717758     -208.356735      -76.852348
 N         -79.046837     -208.344131      -75.764252
 H         -79.113358     -209.389282      -73.378845
 H         -78.475975     -208.353928      -77.940475
 C         -78.627060     -209.946350      -72.579445
 C         -77.245972     -209.559631      -72.017738
 C         -79.076614     -211.324219      -71.947838
 C         -76.979706     -209.712769      -70.498085
 C         -79.056030     -211.198013      -70.458786
 C         -77.651840     -210.993652      -69.992882
 H         -77.120026     -208.496948      -72.248901
 H         -76.576736     -210.230072      -72.548172
 H         -80.051476     -211.583481      -72.232346
 H         -78.429390     -212.187836      -72.172157
 H         -77.673256     -208.943573      -70.121475
 H         -75.937645     -209.612869      -70.159492
 H         -79.434586     -212.195602      -69.971397
 H         -79.795578     -210.424332      -70.098068
 H         -77.679970     -210.773178      -68.935616
 H         -76.953407     -211.821976      -70.089676
