20
 generated by VMD
 C         -51.900864     -130.015182      -45.210579
 N         -51.729343     -129.482864      -46.276291
 H         -48.645844     -129.831879      -43.241337
 H         -51.855938     -130.441544      -44.177189
 C         -47.895550     -130.093063      -42.382515
 C         -47.873470     -131.466095      -41.737751
 C         -47.340698     -128.935074      -41.655266
 C         -46.549213     -131.786850      -41.048321
 C         -45.995552     -129.279755      -40.847103
 C         -46.169430     -130.607162      -40.081985
 H         -47.946438     -132.327408      -42.536968
 H         -48.682980     -131.533310      -41.061783
 H         -47.059776     -128.133118      -42.310654
 H         -47.989754     -128.327621      -40.882648
 H         -45.638359     -131.842331      -41.720272
 H         -46.678291     -132.645432      -40.410358
 H         -45.845409     -128.379822      -40.137936
 H         -45.110783     -129.373672      -41.475231
 H         -45.297707     -130.873810      -39.436478
 H         -46.930813     -130.402115      -39.301411
