20
 generated by VMD
 C         -56.230103     -150.131134      -46.810429
 N         -57.030018     -150.415619      -46.061920
 H         -53.758411     -148.071533      -47.470863
 H         -55.570648     -149.688980      -47.565166
 C         -53.768841     -147.556641      -48.472088
 C         -53.102188     -147.976868      -49.752789
 C         -54.436848     -146.120728      -48.598637
 C         -53.811550     -147.744385      -51.090435
 C         -55.446198     -146.168228      -49.783943
 C         -54.623520     -146.398666      -51.182957
 H         -52.764755     -148.963318      -49.765568
 H         -52.158894     -147.266815      -49.713356
 H         -54.824356     -145.844467      -47.618923
 H         -53.551807     -145.393463      -48.919735
 H         -54.641804     -148.403244      -51.175228
 H         -53.156918     -147.914185      -51.930958
 H         -56.070129     -145.222229      -49.726246
 H         -56.246662     -146.878326      -49.735794
 H         -55.344994     -146.329346      -51.991096
 H         -53.879581     -145.578629      -51.373356
