20
 generated by VMD
 C         -53.047646     -146.831558      -45.000599
 N         -52.072903     -147.143860      -44.440376
 H         -54.317333     -146.665710      -47.714314
 H         -53.917137     -146.551880      -45.558327
 C         -54.381062     -145.750259      -48.314510
 C         -53.120819     -145.563263      -49.107243
 C         -55.035904     -144.501068      -47.816299
 C         -53.407990     -144.697403      -50.270832
 C         -55.263741     -143.581985      -49.044727
 C         -54.037582     -143.396484      -49.870800
 H         -52.862076     -146.524094      -49.530807
 H         -52.318211     -145.102829      -48.495892
 H         -55.965359     -144.772980      -47.356003
 H         -54.476868     -144.046570      -47.125427
 H         -54.156769     -145.147461      -50.989716
 H         -52.334400     -144.590698      -50.660706
 H         -55.665539     -142.661697      -48.589123
 H         -56.045063     -144.005066      -49.620148
 H         -54.192173     -142.736526      -50.707272
 H         -53.279610     -142.856552      -49.383892
