20
 generated by VMD
 C         -29.183399      -80.323143      -26.910170
 N         -29.999018      -80.186104      -27.723251
 H         -28.393881      -82.502083      -24.508663
 H         -28.497221      -80.394936      -26.013014
 C         -29.212564      -83.067986      -24.122854
 C         -29.373388      -83.020599      -22.643328
 C         -29.904800      -84.119041      -24.901367
 C         -30.933054      -83.096794      -22.133944
 C         -31.462982      -84.048195      -24.461781
 C         -31.634428      -84.277702      -22.934387
 H         -29.059210      -81.958954      -22.318451
 H         -28.820608      -83.857742      -22.135353
 H         -29.788393      -83.768143      -25.989164
 H         -29.427053      -85.079437      -24.799706
 H         -31.449936      -82.209274      -22.443954
 H         -31.019930      -83.372437      -20.990810
 H         -31.883501      -84.837646      -25.179695
 H         -31.807985      -83.096901      -24.836044
 H         -32.756294      -84.307068      -22.655752
 H         -31.240625      -85.307632      -22.683781
