20
 generated by VMD
 C         -77.464195     -202.879852      -69.123817
 N         -77.553665     -203.778015      -68.370079
 H         -75.042923     -201.598846      -66.996765
 H         -77.332130     -202.043762      -69.875351
 C         -74.654907     -201.213516      -68.007774
 C         -75.278694     -199.898163      -68.543541
 C         -73.722046     -202.054825      -68.852486
 C         -74.433411     -199.311325      -69.763786
 C         -73.174667     -201.409973      -70.144989
 C         -74.157127     -200.313354      -70.848129
 H         -75.352509     -199.129150      -67.773781
 H         -76.280830     -200.132187      -68.933716
 H         -72.845551     -202.393814      -68.266579
 H         -74.267952     -202.947357      -69.193199
 H         -73.470757     -198.860519      -69.462753
 H         -75.136223     -198.612930      -70.203705
 H         -73.065544     -202.131180      -70.946030
 H         -72.261124     -200.922211      -69.917175
 H         -73.628746     -199.761551      -71.653511
 H         -75.190025     -200.741898      -71.193657
