20
 generated by VMD
 C         -49.175053     -127.221306      -39.645012
 N         -50.345837     -127.276802      -39.525169
 H         -47.201237     -127.136246      -42.193691
 H         -48.111393     -127.219521      -39.461842
 C         -46.347439     -126.452446      -41.838448
 C         -45.350182     -126.998489      -40.871571
 C         -46.582344     -124.979240      -42.064693
 C         -44.401192     -126.010712      -40.365944
 C         -45.457489     -124.060715      -41.522602
 C         -44.874653     -124.589226      -40.166050
 H         -44.777687     -127.733994      -41.396542
 H         -46.046627     -127.510788      -40.099892
 H         -46.592686     -124.761696      -43.182034
 H         -47.505455     -124.693718      -41.667389
 H         -43.630890     -125.899956      -41.141949
 H         -43.857079     -126.399033      -39.491489
 H         -45.788242     -123.120407      -41.190048
 H         -44.628384     -124.076416      -42.185711
 H         -43.942047     -123.961021      -39.925327
 H         -45.554714     -124.500961      -39.315563
