20
 generated by VMD
 C         -62.529976     -174.026260      -55.182034
 N         -63.652027     -174.138275      -55.231369
 H         -62.421467     -172.286682      -57.933731
 H         -61.465073     -173.989304      -55.253380
 C         -63.125950     -171.614166      -58.361977
 C         -63.071964     -170.339066      -57.608879
 C         -64.135750     -171.937057      -59.375000
 C         -63.739021     -169.191772      -58.206608
 C         -64.658020     -170.762939      -60.179836
 C         -64.909348     -169.625107      -59.147163
 H         -61.882343     -170.079758      -57.472237
 H         -63.450176     -170.518433      -56.659798
 H         -63.624378     -172.655411      -59.996239
 H         -64.937584     -172.644714      -59.055386
 H         -62.968330     -168.745026      -58.821690
 H         -64.112503     -168.465378      -57.451313
 H         -65.586472     -170.961136      -60.711323
 H         -63.879307     -170.391006      -60.857491
 H         -65.164352     -168.738861      -59.719784
 H         -65.858009     -169.913681      -58.523315
