20
 generated by VMD
 C         -55.045403     -148.531525      -45.207626
 N         -54.562225     -148.769836      -44.146736
 H         -54.252834     -148.007904      -48.770344
 H         -55.659340     -148.333374      -46.082226
 C         -54.341080     -147.045456      -49.225262
 C         -53.221085     -146.891998      -50.153896
 C         -55.082775     -145.957520      -48.537369
 C         -53.339828     -145.642715      -50.919930
 C         -55.121223     -144.822449      -49.492687
 C         -53.789295     -144.503693      -50.184986
 H         -53.250572     -147.783157      -50.768524
 H         -52.285236     -146.824219      -49.621628
 H         -56.078472     -146.372696      -48.347599
 H         -54.603374     -145.780426      -47.570599
 H         -53.931854     -145.836914      -51.781288
 H         -52.358471     -145.484970      -51.395966
 H         -55.437317     -143.923676      -48.990921
 H         -55.897079     -144.940567      -50.262638
 H         -53.661556     -143.588425      -50.795822
 H         -53.117752     -144.115967      -49.382896
