20
 generated by VMD
 C          -1.129562       -9.959442        1.179155
 N          -1.848272       -9.787989        0.364164
 H          -3.158760      -12.176719        1.232967
 H          -3.965287      -12.125824        2.822125
 C          -3.828795      -12.758776        1.943695
 C          -3.081909      -14.023337        2.390367
 C          -5.163757      -13.049894        1.236883
 C          -3.980916      -14.826981        3.333422
 C          -5.972718      -13.984755        2.067530
 C          -5.322343      -15.203695        2.621206
 H          -2.221963      -13.712821        2.960289
 H          -2.656032      -14.558896        1.497471
 H          -5.706435      -12.111358        1.195547
 H          -5.070706      -13.310248        0.203156
 H          -4.264261      -14.290650        4.198281
 H          -3.582540      -15.762473        3.602808
 H          -6.843144      -14.255395        1.447457
 H          -6.379139      -13.363893        2.924862
 H          -5.991823      -15.776449        3.275540
 H          -5.032469      -15.824782        1.747927
