20
 generated by VMD
 C         -79.481628     -205.392715      -71.762115
 N         -79.792679     -206.468643      -71.577606
 H         -77.177498     -204.044785      -71.821701
 H         -79.370712     -204.297684      -71.665207
 C         -76.413437     -204.162781      -71.064743
 C         -75.477921     -203.036530      -70.820305
 C         -76.479561     -205.376053      -70.154221
 C         -74.177391     -203.460297      -70.011543
 C         -75.212868     -205.427689      -69.152512
 C         -73.871765     -204.907806      -69.739250
 H         -76.065331     -202.236374      -70.385361
 H         -75.236664     -202.706039      -71.884331
 H         -77.439301     -205.376709      -69.806664
 H         -76.387291     -206.251968      -70.754471
 H         -74.125725     -202.879593      -69.098656
 H         -73.397263     -203.001999      -70.673012
 H         -75.145805     -206.427811      -68.822311
 H         -75.422279     -204.745911      -68.208611
 H         -72.975052     -204.910522      -69.061897
 H         -73.547043     -205.440689      -70.708328
