20
 generated by VMD
 C          -1.490692      -10.755605        0.759371
 N          -0.882831      -10.494110        1.637467
 H          -3.697791      -13.035116        0.236524
 H          -4.868065      -12.326976        1.336779
 C          -4.392717      -13.259884        1.041740
 C          -3.567619      -13.899079        2.148723
 C          -5.434155      -14.257114        0.479358
 C          -4.412298      -14.545806        3.252524
 C          -6.311181      -14.889962        1.607801
 C          -5.424403      -15.584701        2.648602
 H          -2.955940      -13.159305        2.547645
 H          -2.941400      -14.626646        1.653767
 H          -6.154565      -13.730218       -0.203097
 H          -5.027875      -15.118478       -0.165743
 H          -4.978171      -13.743758        3.772330
 H          -3.748009      -15.097957        3.917845
 H          -6.973209      -15.656421        1.215128
 H          -6.867853      -14.077991        2.087707
 H          -6.010993      -16.070152        3.500598
 H          -4.774659      -16.377331        2.173211
