20
 generated by VMD
 C         -29.373055      -87.971771      -24.984465
 N         -28.866909      -88.119774      -26.012558
 H         -31.217070      -89.156334      -27.345488
 H         -29.741472      -88.016678      -24.037123
 C         -32.269222      -89.495483      -27.232121
 C         -32.837105      -89.456223      -25.822960
 C         -33.346668      -89.288147      -28.363205
 C         -33.465256      -88.092567      -25.758926
 C         -34.121357      -88.068573      -28.153580
 C         -34.641514      -87.966011      -26.690147
 H         -31.981249      -89.556534      -25.137411
 H         -33.721714      -90.230576      -25.825943
 H         -32.921608      -89.390549      -29.411957
 H         -34.093010      -90.085548      -28.262781
 H         -32.743996      -87.191185      -25.972803
 H         -33.671227      -87.956444      -24.729113
 H         -35.004154      -87.987755      -28.853191
 H         -33.570293      -87.140366      -28.336130
 H         -35.259563      -86.973648      -26.444559
 H         -35.283424      -88.905838      -26.557798
