20
 generated by VMD
 C         -47.615578     -136.676743      -45.941330
 N         -47.060383     -136.305237      -46.882648
 H         -50.936203     -135.673447      -45.606735
 H         -48.364834     -137.073532      -45.230392
 C         -51.240379     -136.645813      -45.147987
 C         -51.750271     -137.676376      -46.133789
 C         -51.841927     -136.553009      -43.826900
 C         -52.067146     -139.000000      -45.453945
 C         -52.326229     -137.883194      -43.256615
 C         -52.944328     -138.840851      -44.264057
 H         -50.901234     -137.776001      -46.823120
 H         -52.591820     -137.372818      -46.713615
 H         -51.237328     -136.039078      -43.076813
 H         -52.840092     -136.035172      -44.011852
 H         -51.054523     -139.422714      -45.276085
 H         -52.613224     -139.620819      -46.123558
 H         -52.995918     -137.609726      -42.410595
 H         -51.378353     -138.422867      -42.934341
 H         -53.012737     -139.892838      -43.835072
 H         -53.830791     -138.448090      -44.729031
