20
 generated by VMD
 C         -67.455666     -189.621796      -66.618095
 N         -66.343254     -189.844086      -66.727394
 H         -70.240387     -190.780670      -65.713043
 H         -68.453674     -189.344177      -66.748856
 C         -70.862213     -190.162033      -65.056679
 C         -72.096634     -190.891754      -64.663246
 C         -70.464500     -189.069687      -64.275772
 C         -73.132370     -190.097717      -63.964870
 C         -71.578102     -188.152084      -64.024788
 C         -72.551277     -188.904175      -63.100067
 H         -71.815529     -191.807068      -64.180725
 H         -72.618958     -191.288422      -65.566925
 H         -69.943367     -189.358734      -63.385815
 H         -69.537086     -188.566406      -64.810196
 H         -73.847755     -190.673187      -63.398701
 H         -73.759018     -189.675552      -64.796844
 H         -72.127350     -187.831726      -64.970634
 H         -71.265121     -187.175598      -63.564693
 H         -71.997856     -189.353821      -62.348362
 H         -73.393265     -188.173721      -62.838234
