20
 generated by VMD
 C         -70.810898     -181.627335      -64.175491
 N         -70.109856     -182.407516      -63.659451
 H         -68.504890     -180.856094      -61.332489
 H         -71.445236     -180.926514      -64.729240
 C         -67.554863     -180.714447      -60.943790
 C         -66.544281     -181.868561      -60.588848
 C         -67.281448     -179.276291      -60.379211
 C         -65.091652     -181.420456      -60.757343
 C         -65.961479     -178.899796      -60.896828
 C         -64.934616     -179.911163      -60.334545
 H         -66.659401     -182.756943      -61.229160
 H         -66.755165     -182.154083      -59.623615
 H         -67.987846     -178.497589      -60.828102
 H         -67.360886     -179.333008      -59.297951
 H         -64.903656     -181.411316      -61.871201
 H         -64.402100     -182.237228      -60.382404
 H         -65.693718     -177.892609      -60.541229
 H         -66.065071     -178.935257      -61.985249
 H         -63.845181     -179.679291      -60.635452
 H         -64.966438     -179.779160      -59.282177
