20
 generated by VMD
 C         -56.388241     -150.069244      -47.694271
 N         -57.487888     -150.306976      -47.597897
 H         -53.208942     -148.002121      -47.408329
 H         -55.391491     -149.723434      -47.871746
 C         -53.505405     -147.694946      -48.339226
 C         -53.092957     -148.543793      -49.584938
 C         -54.542442     -146.538834      -48.457813
 C         -54.160912     -148.627533      -50.789673
 C         -55.558990     -146.706696      -49.679916
 C         -54.964130     -147.378540      -50.989864
 H         -53.099121     -149.640091      -49.288231
 H         -52.148499     -148.287292      -50.110249
 H         -55.165970     -146.596756      -47.603874
 H         -53.991531     -145.590195      -48.544147
 H         -54.982887     -149.302750      -50.546104
 H         -53.709663     -148.990494      -51.710495
 H         -55.826168     -145.722214      -49.878052
 H         -56.456593     -147.339569      -49.334980
 H         -55.777817     -147.553650      -51.653248
 H         -54.374046     -146.629135      -51.516148
