20
 generated by VMD
 C         -13.025331      -28.580774       -5.247171
 N         -12.832247      -27.526575       -5.580842
 H         -11.248825      -30.885675       -3.147921
 H         -11.191530      -29.464819       -4.070686
 C         -10.560220      -30.206553       -3.576789
 C          -9.705649      -30.955391       -4.713336
 C          -9.600645      -29.663452       -2.500966
 C          -8.684385      -29.974409       -5.345068
 C          -8.529164      -28.648813       -3.114036
 C          -7.793757      -29.353708       -4.322829
 H         -10.395089      -31.404024       -5.454718
 H          -9.160987      -31.749395       -4.250539
 H         -10.141342      -29.163828       -1.646908
 H          -9.021899      -30.514755       -2.062497
 H          -9.177404      -29.155079       -5.810565
 H          -8.121494      -30.486124       -6.117645
 H          -7.734895      -28.369114       -2.359503
 H          -9.054646      -27.767130       -3.456862
 H          -6.995165      -28.813129       -4.867066
 H          -7.136676      -30.128658       -3.837874
