20
 generated by VMD
 C         -50.687939     -129.165756      -42.864292
 N         -50.391567     -128.248077      -42.172760
 H         -48.380497     -127.822594      -40.320137
 H         -51.088535     -130.051559      -43.335480
 C         -47.375942     -127.635071      -40.560455
 C         -46.302452     -128.494125      -40.140659
 C         -47.175720     -126.283409      -41.164062
 C         -45.006985     -128.435654      -40.965858
 C         -45.946850     -126.204002      -42.064438
 C         -44.825081     -126.924683      -41.333790
 H         -46.733154     -129.488785      -40.167782
 H         -46.078190     -128.363037      -39.023945
 H         -48.056770     -125.962212      -41.643959
 H         -46.972378     -125.393974      -40.513229
 H         -45.221184     -129.025909      -41.923836
 H         -44.166927     -128.731201      -40.282490
 H         -45.800545     -125.101990      -42.207054
 H         -46.274857     -126.710381      -42.968395
 H         -43.921543     -126.834671      -41.934792
 H         -44.678642     -126.367249      -40.396740
