20
 generated by VMD
 C         -78.299355     -204.239212      -70.205971
 N         -79.365715     -203.900513      -70.086800
 H         -76.617355     -203.393784      -68.620613
 H         -77.261208     -204.481171      -70.554398
 C         -75.708725     -202.860962      -68.918274
 C         -75.686752     -201.554092      -69.523109
 C         -74.333725     -203.495377      -68.744957
 C         -74.919067     -201.515915      -70.751595
 C         -73.082642     -202.697861      -69.384743
 C         -73.387726     -201.551682      -70.304283
 H         -75.305687     -200.882736      -68.740532
 H         -76.686195     -201.254578      -69.801056
 H         -74.083832     -203.542755      -67.691628
 H         -74.365929     -204.480392      -69.167252
 H         -75.151161     -200.585663      -71.260498
 H         -75.110992     -202.337799      -71.473808
 H         -72.411346     -203.437347      -69.910782
 H         -72.517502     -202.365753      -68.522026
 H         -73.011497     -200.540909      -69.957397
 H         -72.870712     -201.641693      -71.324715
