20
 generated by VMD
 C         -59.304340     -168.351227      -55.404949
 N         -58.514885     -168.877197      -54.795296
 H         -62.248268     -169.329208      -55.868061
 H         -60.065620     -167.978485      -56.057396
 C         -62.605316     -168.454880      -56.366165
 C         -62.783649     -168.389984      -57.844040
 C         -62.894817     -167.162415      -55.564949
 C         -63.949150     -167.612137      -58.340214
 C         -64.112862     -166.458298      -56.050556
 C         -64.093117     -166.274353      -57.581284
 H         -62.903793     -169.407150      -58.368591
 H         -61.913258     -168.029236      -58.311905
 H         -62.932903     -167.525543      -54.482327
 H         -61.976192     -166.606293      -55.770340
 H         -64.939674     -168.070236      -58.421803
 H         -63.788960     -167.336761      -59.395603
 H         -64.193489     -165.530563      -55.467007
 H         -65.099548     -166.849304      -55.738964
 H         -65.046242     -165.773697      -57.864571
 H         -63.234898     -165.539688      -57.929363
