20
 generated by VMD
 C         -20.046854      -60.590321      -17.002827
 N         -19.213449      -60.059265      -17.557606
 H         -23.731169      -60.465702      -16.907652
 H         -20.771656      -61.293182      -16.412165
 C         -23.322876      -61.464462      -16.719738
 C         -23.318169      -62.417599      -17.846611
 C         -23.329079      -62.039299      -15.283935
 C         -23.434891      -63.908772      -17.726473
 C         -23.036436      -63.605614      -15.303832
 C         -23.971439      -64.211105      -16.359440
 H         -22.342855      -62.237389      -18.273333
 H         -23.933510      -62.038742      -18.624958
 H         -22.623213      -61.480072      -14.605295
 H         -24.244539      -61.841915      -14.766494
 H         -22.474630      -64.357292      -18.112944
 H         -24.222191      -64.284958      -18.452168
 H         -23.216190      -64.109520      -14.355249
 H         -21.999292      -63.744972      -15.541059
 H         -24.136372      -65.251167      -16.170341
 H         -24.926401      -63.776566      -16.346083
