20
 generated by VMD
 C         -78.783783     -209.278397      -76.791031
 N         -79.744514     -208.750565      -77.056068
 H         -78.182770     -209.014755      -72.849266
 H         -77.914955     -209.927063      -76.587181
 C         -78.049843     -209.918884      -72.282310
 C         -76.901688     -210.148117      -71.361130
 C         -79.134644     -210.818817      -72.371643
 C         -77.417747     -210.631287      -70.082817
 C         -79.505035     -211.670044      -71.208176
 C         -78.225601     -211.915970      -70.384666
 H         -76.439339     -209.191986      -71.085464
 H         -76.148247     -210.893738      -71.808777
 H         -80.035835     -210.273819      -72.692085
 H         -78.910400     -211.438217      -73.241020
 H         -78.065674     -209.891678      -69.540833
 H         -76.538132     -210.926254      -69.481445
 H         -80.170151     -212.566254      -71.482468
 H         -80.187904     -211.069351      -70.665955
 H         -78.605026     -212.084534      -69.386353
 H         -77.676231     -212.758469      -70.735619
