20
 generated by VMD
 C         -38.543121      -98.793877      -27.602766
 N         -37.999355      -99.463593      -26.829590
 H         -37.293785      -97.811981      -30.195749
 H         -39.274414      -98.285606      -28.326433
 C         -36.348660      -97.304611      -30.617804
 C         -35.467602      -97.907951      -31.741438
 C         -35.579254      -96.581528      -29.594833
 C         -34.518913      -96.817688      -32.157238
 C         -34.253181      -95.896072      -29.971418
 C         -33.475616      -96.561813      -31.131035
 H         -35.942165      -98.184013      -32.685719
 H         -34.913616      -98.714241      -31.374771
 H         -36.276867      -95.954506      -29.001099
 H         -35.301445      -97.317238      -28.842278
 H         -35.173737      -95.875053      -32.403675
 H         -34.048698      -96.980843      -33.100994
 H         -33.646778      -95.804192      -29.118622
 H         -34.448517      -94.825592      -30.194368
 H         -32.573887      -95.907845      -31.394005
 H         -33.111244      -97.557777      -30.792723
