20
 generated by VMD
 C         -56.334351     -150.032501      -47.710499
 N         -57.476166     -150.308670      -47.547123
 H         -52.990070     -147.890610      -47.353512
 H         -55.292458     -149.672073      -47.935936
 C         -53.497631     -147.715057      -48.359741
 C         -53.130772     -148.553421      -49.561878
 C         -54.514103     -146.573135      -48.497997
 C         -54.217918     -148.576462      -50.747726
 C         -55.577358     -146.743622      -49.709904
 C         -54.946724     -147.316055      -50.985664
 H         -52.999134     -149.459549      -49.081463
 H         -52.144688     -148.196686      -50.000324
 H         -55.215179     -146.423599      -47.651680
 H         -54.029903     -145.593414      -48.443588
 H         -54.894360     -149.403107      -50.562168
 H         -53.677208     -148.775528      -51.696735
 H         -55.888462     -145.604706      -49.917473
 H         -56.498440     -147.207733      -49.369556
 H         -55.756664     -147.494537      -51.723110
 H         -54.216694     -146.570816      -51.363331
