20
 generated by VMD
 C         -67.370468     -192.040283      -67.350616
 N         -67.767067     -192.793442      -66.595947
 H         -69.878479     -189.746323      -65.415306
 H         -67.042229     -191.447128      -68.248795
 C         -70.925179     -189.996948      -65.185310
 C         -71.727798     -190.845047      -66.122925
 C         -71.543968     -189.444534      -63.974693
 C         -72.982353     -191.578430      -65.475052
 C         -73.090385     -189.746140      -63.802975
 C         -73.222038     -191.249252      -63.980129
 H         -71.102982     -191.637161      -66.515038
 H         -72.011612     -190.279953      -67.037788
 H         -70.877937     -189.808670      -63.140152
 H         -71.463341     -188.319000      -64.118950
 H         -72.895737     -192.663086      -65.612923
 H         -73.922462     -191.372147      -66.069168
 H         -73.848457     -189.179504      -64.426292
 H         -73.345657     -189.386856      -62.818157
 H         -72.465446     -191.729599      -63.450836
 H         -74.390396     -191.483444      -63.798489
