20
 generated by VMD
 C         -30.230955      -79.464401      -25.888052
 N         -30.964336      -78.590378      -26.149752
 H         -28.450869      -82.720886      -25.637373
 H         -29.521938      -80.297905      -25.992514
 C         -28.972397      -82.532501      -24.624298
 C         -28.152868      -81.842789      -23.641323
 C         -29.951502      -83.436913      -24.266363
 C         -29.074320      -81.251480      -22.519758
 C         -30.812395      -83.017059      -23.050251
 C         -29.983599      -82.254272      -21.987524
 H         -27.565495      -81.018524      -24.038441
 H         -27.397833      -82.538094      -23.232838
 H         -30.647846      -83.587402      -25.151699
 H         -29.487963      -84.382607      -24.152504
 H         -29.687069      -80.279610      -22.810902
 H         -28.378330      -80.892914      -21.785641
 H         -31.401579      -83.880569      -22.710699
 H         -31.543406      -82.327301      -23.432449
 H         -30.655170      -81.787918      -21.233942
 H         -29.523361      -82.970894      -21.261955
