20
 generated by VMD
 C         -49.331116     -126.941109      -40.044102
 N         -49.919994     -127.126816      -39.050499
 H         -46.819199     -126.920074      -42.447960
 H         -48.565662     -126.805260      -40.781784
 C         -46.155407     -126.368767      -41.798470
 C         -45.256741     -126.833313      -40.732250
 C         -46.727737     -124.895363      -41.754837
 C         -44.221420     -125.755844      -40.427719
 C         -45.620564     -123.933533      -41.368473
 C         -44.737083     -124.382027      -40.267963
 H         -44.729992     -127.762253      -41.092278
 H         -45.686539     -127.187393      -39.861080
 H         -47.338524     -124.671730      -42.625053
 H         -47.624504     -124.927940      -40.958187
 H         -43.428547     -125.797386      -41.259579
 H         -43.624668     -125.953072      -39.496918
 H         -46.079288     -122.957405      -41.157787
 H         -45.148952     -123.737495      -42.315189
 H         -43.865608     -123.791557      -40.424263
 H         -45.184677     -124.115410      -39.287651
