20
 generated by VMD
 C         -38.729858     -109.671066      -36.168549
 N         -37.738094     -109.044724      -36.181988
 H         -42.126850     -110.056046      -36.798374
 H         -39.553276     -110.320419      -36.222507
 C         -42.069618     -110.834709      -36.004578
 C         -41.775112     -112.207024      -35.995834
 C         -42.451469     -110.222916      -34.719940
 C         -40.887840     -112.763397      -34.890244
 C         -41.847271     -110.768196      -33.423656
 C         -41.425335     -112.272217      -33.585983
 H         -41.391415     -112.360184      -37.031792
 H         -42.667995     -112.779404      -36.088154
 H         -42.263016     -109.187607      -34.899887
 H         -43.529240     -110.475517      -34.809055
 H         -39.731728     -112.572075      -34.949799
 H         -40.882839     -113.839890      -34.922604
 H         -42.570450     -110.741493      -32.670433
 H         -41.009083     -110.253799      -33.085587
 H         -40.694096     -112.525948      -32.821476
 H         -42.448021     -112.868324      -33.473000
