20
 generated by VMD
 C         -68.647812     -189.193298      -67.234924
 N         -67.561668     -189.290833      -66.882744
 H         -68.550629     -187.944977      -63.889866
 H         -69.662224     -188.934113      -67.510353
 C         -69.479446     -188.238327      -63.353519
 C         -70.001961     -189.670593      -63.483875
 C         -70.546501     -187.186691      -62.782730
 C         -71.280968     -189.734695      -64.314613
 C         -71.821281     -187.263977      -63.656757
 C         -72.337303     -188.655228      -63.857574
 H         -70.197166     -190.024887      -62.504528
 H         -69.265221     -190.230103      -63.931194
 H         -70.759697     -187.474976      -61.734726
 H         -70.184822     -186.227325      -62.676373
 H         -71.767021     -190.691574      -64.225693
 H         -71.050179     -189.513062      -65.402199
 H         -71.667946     -187.021896      -64.711815
 H         -72.549049     -186.599579      -63.235138
 H         -72.787643     -188.961990      -62.945393
 H         -72.919830     -188.679550      -64.737816
