20
 generated by VMD
 C         -55.208645     -148.627930      -45.221329
 N         -54.622677     -148.911118      -44.238670
 H         -54.437363     -148.077499      -48.571743
 H         -55.862778     -148.495010      -46.111538
 C         -54.271896     -147.157532      -49.164989
 C         -53.216347     -147.013489      -50.069004
 C         -55.002998     -145.980194      -48.600079
 C         -53.413761     -145.765717      -51.002876
 C         -55.140835     -144.805847      -49.586548
 C         -53.788841     -144.474625      -50.219234
 H         -53.011677     -147.940994      -50.635319
 H         -52.306618     -146.853439      -49.544975
 H         -56.068409     -146.259796      -48.449383
 H         -54.643814     -145.596268      -47.645443
 H         -54.186642     -145.882248      -51.716705
 H         -52.445759     -145.436859      -51.404911
 H         -55.505318     -143.995209      -49.053440
 H         -55.992058     -145.064346      -50.270138
 H         -53.867180     -143.693024      -50.933266
 H         -53.072502     -144.359741      -49.387043
