20
 generated by VMD
 C         -50.036392     -142.949615      -45.129101
 N         -48.966648     -143.273697      -45.422138
 H         -51.822208     -140.498962      -45.564098
 H         -51.111977     -142.695007      -45.054951
 C         -52.639767     -140.859451      -46.156197
 C         -52.096630     -141.038300      -47.553093
 C         -54.074436     -140.641449      -45.992821
 C         -52.910561     -142.113159      -48.387466
 C         -54.885277     -141.714066      -46.803223
 C         -54.428604     -141.900681      -48.326481
 H         -51.127468     -141.461777      -47.589592
 H         -52.133347     -140.112946      -48.055511
 H         -54.232849     -140.692688      -44.911793
 H         -54.351776     -139.672836      -46.441223
 H         -52.783203     -143.084961      -47.996155
 H         -52.509720     -142.082367      -49.360691
 H         -55.960167     -141.633301      -46.658836
 H         -54.584007     -142.719528      -46.368885
 H         -54.941284     -142.664978      -48.826248
 H         -54.703590     -141.060349      -48.870972
