20
 generated by VMD
 C         -57.995480     -150.723984      -48.929089
 N         -58.117432     -151.878326      -48.649300
 H         -55.553814     -149.669830      -47.790859
 H         -57.967255     -149.639557      -49.155251
 C         -55.223572     -149.435760      -48.768845
 C         -54.342155     -150.391052      -49.468239
 C         -55.161213     -147.956253      -48.968784
 C         -54.161587     -149.928329      -50.932442
 C         -54.912746     -147.553497      -50.370964
 C         -53.902409     -148.430786      -51.035011
 H         -54.875706     -151.301529      -49.663029
 H         -53.389771     -150.500656      -48.996651
 H         -56.121201     -147.625092      -48.600315
 H         -54.312889     -147.558365      -48.292309
 H         -54.995487     -150.168762      -51.609989
 H         -53.229572     -150.503708      -51.235691
 H         -54.528229     -146.590546      -50.249283
 H         -55.793938     -147.504105      -51.118973
 H         -53.719597     -148.195633      -52.069565
 H         -52.903847     -148.355621      -50.566677
