20
 generated by VMD
 C         -29.094690      -81.372620      -27.677248
 N         -29.822025      -80.497856      -27.561209
 H         -28.999109      -82.264488      -23.784477
 H         -28.336536      -82.200798      -27.977022
 C         -29.445377      -83.272919      -23.772402
 C         -29.755693      -83.731598      -22.466595
 C         -29.976254      -83.834679      -24.982000
 C         -31.301723      -83.900955      -22.277315
 C         -31.554504      -84.052406      -24.804104
 C         -31.929695      -84.667030      -23.447504
 H         -29.452503      -83.002159      -21.743990
 H         -29.152353      -84.691254      -22.110319
 H         -29.640532      -83.155777      -25.724400
 H         -29.553474      -84.822906      -25.280296
 H         -31.855927      -82.996101      -22.064350
 H         -31.664270      -84.455299      -21.438557
 H         -31.814903      -84.697670      -25.718901
 H         -31.963287      -83.031311      -25.024525
 H         -32.984631      -84.678482      -23.455803
 H         -31.568916      -85.730759      -23.255903
