20
 generated by VMD
 C         -58.072536     -168.375610      -55.039940
 N         -56.978855     -168.567856      -54.898281
 H         -61.339161     -167.315628      -55.786255
 H         -59.106937     -168.128906      -55.035583
 C         -62.360859     -167.136963      -56.092983
 C         -62.695621     -167.645386      -57.450008
 C         -63.025616     -165.816055      -55.556171
 C         -64.154945     -167.538681      -57.825928
 C         -64.493233     -165.803452      -55.908154
 C         -64.679886     -166.110489      -57.484772
 H         -62.452915     -168.642776      -57.410503
 H         -61.950539     -167.149551      -58.191399
 H         -62.957043     -165.709641      -54.507236
 H         -62.564011     -164.905640      -56.102966
 H         -64.697205     -168.293365      -57.245953
 H         -64.231979     -167.825638      -58.861019
 H         -65.105675     -164.836182      -55.737720
 H         -64.902328     -166.685364      -55.421375
 H         -65.744400     -165.913498      -57.774921
 H         -64.096786     -165.285461      -57.927586
