20
 generated by VMD
 C         -38.007965     -109.696159      -36.431408
 N         -37.423008     -108.873459      -35.875221
 H         -40.654110     -112.322311      -36.992725
 H         -38.350037     -110.441010      -37.067509
 C         -41.390812     -112.450584      -36.192692
 C         -42.378895     -113.515007      -36.434124
 C         -41.676624     -111.333580      -35.314735
 C         -42.894684     -114.081520      -35.127220
 C         -42.310768     -111.925354      -34.019569
 C         -43.405296     -112.915062      -34.178688
 H         -41.853897     -114.297729      -36.988068
 H         -43.078247     -113.144409      -37.129341
 H         -40.819244     -110.840958      -34.979198
 H         -42.339020     -110.561302      -35.588341
 H         -42.227615     -114.757378      -34.645340
 H         -43.713757     -114.685684      -35.394665
 H         -42.698093     -111.191467      -33.349709
 H         -41.431969     -112.387901      -33.627102
 H         -43.668919     -113.458595      -33.162621
 H         -44.291592     -112.450630      -34.587437
