20
 generated by VMD
 C         -50.628059     -130.911591      -46.402229
 N         -50.287823     -130.983200      -47.465286
 H         -48.256874     -131.985703      -44.335457
 H         -51.256042     -130.656738      -45.596050
 C         -48.541241     -132.343781      -43.308857
 C         -49.188835     -133.679825      -43.135387
 C         -48.433453     -131.387863      -42.121880
 C         -48.507908     -134.376099      -41.933300
 C         -47.865776     -132.141342      -40.914650
 C         -48.500576     -133.508759      -40.667858
 H         -48.960510     -134.374603      -44.021221
 H         -50.207581     -133.587845      -42.896770
 H         -47.749859     -130.495529      -42.423817
 H         -49.486763     -131.025879      -41.819645
 H         -47.481071     -134.614777      -41.968529
 H         -49.023384     -135.271729      -41.646782
 H         -48.038979     -131.612473      -39.953869
 H         -46.790607     -132.040497      -40.894390
 H         -47.817890     -133.902390      -39.940727
 H         -49.628696     -133.397888      -40.416786
