20
 generated by VMD
 C         -18.934937      -49.953560       -9.399771
 N         -19.590780      -50.933586       -9.621576
 H         -16.312719      -47.347652      -10.102642
 H         -18.570978      -49.081963       -9.569284
 C         -16.526133      -47.801163      -11.089378
 C         -15.677998      -49.003521      -11.458529
 C         -17.511625      -47.045605      -12.033688
 C         -16.227869      -49.747601      -12.639267
 C         -18.025030      -47.986355      -13.099218
 C         -16.898586      -48.857460      -13.679612
 H         -15.633353      -49.611320      -10.495712
 H         -14.710661      -48.619076      -11.749475
 H         -18.335199      -46.649551      -11.472852
 H         -16.917515      -46.234093      -12.414191
 H         -17.056618      -50.390945      -12.220425
 H         -15.441901      -50.332272      -13.159313
 H         -18.377060      -47.386879      -13.996378
 H         -18.804981      -48.540237      -12.683627
 H         -17.462780      -49.485237      -14.445489
 H         -16.169197      -48.235107      -14.336936
