20
 generated by VMD
 C          -6.965430      -23.312523        3.114347
 N          -6.362360      -22.626228        2.481648
 H          -7.063114      -21.991550       -0.182592
 H          -8.573052      -21.943846       -1.326314
 C          -7.455175      -21.682465       -1.213348
 C          -6.633418      -22.463774       -2.283943
 C          -7.374046      -20.126789       -1.511571
 C          -7.069246      -22.199938       -3.714300
 C          -7.856275      -19.898764       -2.968748
 C          -6.998413      -20.695625       -3.977556
 H          -6.725912      -23.526087       -2.033243
 H          -5.580950      -22.300138       -2.213681
 H          -8.021477      -19.637032       -0.858343
 H          -6.348966      -19.842731       -1.312500
 H          -8.063609      -22.585257       -4.053352
 H          -6.334762      -22.715475       -4.355680
 H          -7.713586      -18.851355       -3.193854
 H          -8.933685      -20.121403       -2.965752
 H          -7.436163      -20.656281       -5.009628
 H          -5.953841      -20.269867       -4.090180
