20
 generated by VMD
 C         -67.969749     -178.521133      -58.033974
 N         -66.923912     -178.422043      -57.564968
 H         -65.318314     -176.118225      -58.542419
 H         -68.932526     -178.577164      -58.479877
 C         -65.013374     -175.690979      -59.539253
 C         -66.025154     -174.635666      -60.005306
 C         -63.542629     -175.601166      -59.902031
 C         -65.451462     -173.308456      -59.935696
 C         -63.020401     -174.159805      -59.894363
 C         -64.014328     -173.110611      -60.469070
 H         -66.864777     -174.697845      -59.358189
 H         -66.325653     -174.771423      -61.076202
 H         -63.050201     -176.266525      -59.279114
 H         -63.457355     -176.181503      -60.819866
 H         -65.307465     -173.016510      -58.895164
 H         -66.093414     -172.540451      -60.337471
 H         -62.115673     -173.935715      -60.501442
 H         -62.780750     -173.932693      -58.826302
 H         -63.685547     -172.071091      -60.436089
 H         -64.246880     -173.398956      -61.481117
