20
 generated by VMD
 C         -30.112642      -92.719711      -25.447332
 N         -31.074701      -93.288887      -25.796057
 H         -33.113564      -91.130196      -26.399443
 H         -29.179804      -92.110336      -25.238979
 C         -33.607002      -91.182510      -27.395729
 C         -34.757908      -92.135773      -27.411982
 C         -33.144184      -90.391739      -28.517303
 C         -35.901951      -91.688332      -28.319002
 C         -34.302616      -89.965805      -29.407644
 C         -35.224625      -91.130913      -29.634350
 H         -35.119541      -92.355110      -26.512932
 H         -34.245480      -93.032661      -27.777487
 H         -32.577591      -89.560219      -28.136812
 H         -32.603024      -91.101845      -29.177338
 H         -36.440872      -90.780479      -27.892086
 H         -36.637306      -92.419777      -28.588909
 H         -33.785603      -89.404327      -30.157608
 H         -34.788265      -89.292953      -28.741997
 H         -36.066490      -90.836807      -30.270691
 H         -34.614872      -91.872032      -30.164974
