20
 generated by VMD
 C         -56.306328     -149.523621      -46.127106
 N         -56.402252     -150.553772      -45.528877
 H         -53.813335     -148.192612      -47.769936
 H         -56.110760     -148.700577      -46.772442
 C         -53.936455     -147.472214      -48.633965
 C         -53.039200     -147.710129      -49.838276
 C         -54.512383     -146.067459      -48.569805
 C         -53.684940     -147.205353      -51.197193
 C         -55.342640     -145.870499      -49.925438
 C         -54.365986     -145.822037      -51.068081
 H         -52.498959     -148.740875      -49.763702
 H         -52.210545     -147.091171      -49.669708
 H         -55.393730     -145.992584      -47.772518
 H         -53.737122     -145.301422      -48.358372
 H         -54.428749     -147.906128      -51.649891
 H         -52.893135     -146.961655      -51.955917
 H         -55.742924     -144.939651      -49.885586
 H         -56.166733     -146.658752      -49.977043
 H         -54.868061     -145.510925      -51.996319
 H         -53.666710     -145.012115      -50.863972
