20
 generated by VMD
 C         -47.539711     -138.022369      -46.056973
 N         -47.277092     -137.376709      -47.037151
 H         -50.359837     -137.404938      -44.329288
 H         -47.723225     -138.353897      -44.997780
 C         -51.327305     -137.586105      -44.803841
 C         -51.304848     -138.396561      -46.032173
 C         -52.564804     -137.441391      -43.953419
 C         -52.276802     -139.601624      -46.051968
 C         -53.453617     -138.716904      -44.021767
 C         -53.679535     -139.210999      -45.474140
 H         -50.311607     -138.696259      -46.263546
 H         -51.610653     -137.845718      -47.024033
 H         -52.427589     -137.017807      -42.982399
 H         -53.072193     -136.672897      -44.473728
 H         -51.870331     -140.418793      -45.423283
 H         -52.314358     -140.007721      -47.093288
 H         -54.402420     -138.516037      -43.577511
 H         -53.047840     -139.534439      -43.525795
 H         -54.249931     -140.068008      -45.502266
 H         -54.133148     -138.383987      -46.071537
