20
 generated by VMD
 C         -51.011478     -127.999222      -41.676678
 N         -51.970230     -128.618011      -41.860413
 H         -47.135700     -128.184479      -41.312622
 H         -50.102188     -127.489067      -41.421974
 C         -46.785660     -127.451973      -40.696247
 C         -45.462345     -127.866455      -40.093357
 C         -46.822281     -126.008148      -41.179577
 C         -44.215359     -127.330269      -40.824131
 C         -45.548977     -125.467751      -41.928364
 C         -44.296463     -125.849991      -41.110500
 H         -45.308830     -128.959396      -40.007309
 H         -45.423668     -127.479416      -39.094463
 H         -47.768562     -125.772133      -41.637909
 H         -46.866341     -125.141380      -40.383442
 H         -43.930969     -127.968857      -41.755867
 H         -43.233162     -127.530777      -40.340244
 H         -45.380665     -124.366829      -42.079094
 H         -45.416622     -125.966232      -42.924812
 H         -43.388985     -125.712914      -41.718819
 H         -44.246220     -125.315887      -40.179646
