20
 generated by VMD
 C         -20.303572      -61.549725      -16.669855
 N         -19.499573      -61.058743      -17.360672
 H         -21.554920      -64.792343      -16.913458
 H         -21.084988      -61.872646      -15.865178
 C         -22.635254      -64.547348      -17.088717
 C         -23.188736      -64.172920      -18.454493
 C         -23.556149      -64.773712      -15.985509
 C         -24.592911      -64.643188      -18.841898
 C         -24.872465      -65.339859      -16.443621
 C         -25.523945      -64.521973      -17.549999
 H         -22.535936      -64.533508      -19.227383
 H         -23.372286      -63.071625      -18.422241
 H         -23.118570      -65.451576      -15.321488
 H         -23.904074      -63.943665      -15.353639
 H         -24.660055      -65.611061      -19.322590
 H         -24.981968      -63.983295      -19.603821
 H         -25.591623      -65.658257      -15.696316
 H         -24.666933      -66.347603      -16.906057
 H         -26.437096      -64.980881      -17.747673
 H         -25.892014      -63.564003      -17.135046
