20
 generated by VMD
 C         -30.744560      -93.853165      -26.031345
 N         -30.940722      -93.683075      -24.877697
 H         -33.682358      -93.094864      -27.047033
 H         -30.446838      -93.958397      -27.123777
 C         -34.186134      -92.745834      -27.939976
 C         -35.666374      -92.766830      -28.034567
 C         -33.391941      -92.282661      -29.162310
 C         -36.150394      -91.432449      -28.582006
 C         -33.936535      -90.940025      -29.646048
 C         -35.407742      -91.011856      -29.884542
 H         -36.176449      -92.965256      -27.019814
 H         -35.845352      -93.528473      -28.873510
 H         -32.300491      -92.207520      -28.862791
 H         -33.355637      -93.007477      -30.040279
 H         -36.036083      -90.622154      -27.923878
 H         -37.256931      -91.461838      -28.852364
 H         -33.363323      -90.693184      -30.540472
 H         -33.813389      -90.082344      -28.974552
 H         -35.778816      -89.924118      -29.987360
 H         -35.755539      -91.575615      -30.807131
