20
 generated by VMD
 C         -57.913986     -150.647354      -48.650032
 N         -58.051514     -151.771774      -48.605011
 H         -55.265648     -149.493118      -47.560600
 H         -57.634296     -149.600677      -48.706127
 C         -54.952148     -149.126236      -48.559597
 C         -54.044254     -150.056610      -49.350277
 C         -54.891350     -147.683273      -48.793182
 C         -54.220058     -149.720322      -50.912083
 C         -54.973312     -147.381271      -50.289337
 C         -54.072361     -148.210556      -51.296803
 H         -54.275089     -151.083786      -49.196594
 H         -53.064789     -149.878052      -49.005875
 H         -55.819202     -147.213104      -48.311996
 H         -53.978458     -147.206635      -48.465294
 H         -55.203873     -150.085800      -51.250637
 H         -53.494179     -150.378891      -51.322002
 H         -54.906948     -146.194336      -50.455986
 H         -55.903191     -147.483810      -50.757030
 H         -54.202976     -147.824799      -52.288212
 H         -53.088806     -147.845673      -51.067310
