20
 generated by VMD
 C         -30.394711      -74.179352      -20.869394
 N         -30.235064      -75.261459      -20.435999
 H         -27.390455      -74.552200      -19.451706
 H         -30.722706      -73.158905      -21.187407
 C         -26.529306      -74.512741      -20.095192
 C         -26.226757      -75.584709      -21.034327
 C         -26.031012      -73.158714      -20.407900
 C         -25.963970      -75.171005      -22.497789
 C         -25.788345      -72.826859      -21.888624
 C         -25.169744      -73.965126      -22.669718
 H         -26.944061      -76.316986      -21.057907
 H         -25.309958      -76.027924      -20.704350
 H         -26.643011      -72.381714      -19.887106
 H         -25.090973      -73.245644      -19.796291
 H         -26.895752      -74.877701      -23.003849
 H         -25.569212      -76.060745      -23.042175
 H         -25.379646      -71.824242      -21.968721
 H         -26.736933      -72.555946      -22.247446
 H         -25.147282      -73.753868      -23.746796
 H         -24.151287      -74.070274      -22.270021
