20
 generated by VMD
 C         -13.918591      -28.184797       -3.409446
 N         -14.045300      -27.244715       -4.003645
 H         -10.119314      -28.777409       -2.459690
 H         -10.079011      -27.545889       -3.797507
 C          -9.531280      -28.242016       -3.217113
 C          -9.061250      -29.246145       -4.388105
 C          -8.433817      -27.576523       -2.428339
 C          -7.831852      -28.799740       -5.152924
 C          -7.310569      -27.056709       -3.328314
 C          -6.774508      -28.090424       -4.266325
 H          -9.900971      -29.496532       -5.061872
 H          -8.828692      -30.103453       -3.798966
 H          -8.904950      -26.769178       -1.898774
 H          -7.965467      -28.352137       -1.797243
 H          -8.039787      -27.975708       -5.880934
 H          -7.412376      -29.637993       -5.736269
 H          -6.497823      -26.655951       -2.684726
 H          -7.737774      -26.268436       -3.892941
 H          -5.985326      -27.760365       -4.905907
 H          -6.273840      -28.891813       -3.666503
