20
 generated by VMD
 C         -30.625944      -75.815468      -22.892313
 N         -30.928179      -75.198486      -23.794062
 H         -28.966991      -78.696976      -21.581268
 H         -30.510834      -76.263290      -21.836512
 C         -28.083204      -78.103554      -21.586653
 C         -27.177397      -78.181046      -22.732016
 C         -27.548164      -77.391220      -20.421362
 C         -26.550575      -76.912582      -23.175339
 C         -26.854019      -76.089363      -20.794710
 C         -25.938917      -76.184410      -22.008547
 H         -27.668686      -78.608223      -23.607437
 H         -26.390257      -78.955238      -22.490211
 H         -28.319376      -77.137070      -19.780548
 H         -26.800102      -78.032791      -19.949778
 H         -27.364946      -76.226173      -23.528423
 H         -25.988876      -77.093185      -24.125332
 H         -26.345737      -75.524300      -19.961720
 H         -27.528700      -75.359673      -21.124737
 H         -25.538027      -75.180931      -22.297430
 H         -25.161766      -76.805893      -21.665689
