20
 generated by VMD
 C          -3.415292      -17.390102        2.300478
 N          -3.233173      -18.372974        1.811248
 H          -5.520147      -20.294643        0.703775
 H          -5.797525      -20.734041       -1.006140
 C          -6.017383      -19.971292       -0.219605
 C          -5.398401      -18.614504       -0.765566
 C          -7.522638      -19.771862        0.063065
 C          -6.161447      -18.172382       -2.018162
 C          -8.282907      -19.431374       -1.222900
 C          -7.727227      -18.137495       -1.728043
 H          -4.328618      -18.696932       -1.041629
 H          -5.431961      -17.917681        0.031931
 H          -8.004861      -20.711920        0.539022
 H          -7.744517      -18.997921        0.847015
 H          -5.884655      -18.753109       -2.993936
 H          -5.842927      -17.150793       -2.269365
 H          -9.355903      -19.342707       -0.950412
 H          -8.225565      -20.222477       -1.997910
 H          -8.242814      -17.820072       -2.642537
 H          -7.845844      -17.345612       -0.986009
