20
 generated by VMD
 C         -41.952759     -101.849838      -33.594383
 N         -40.845654     -101.829430      -33.919228
 H         -39.187866     -103.769859      -32.487629
 H         -43.020515     -101.563507      -33.445793
 C         -38.172962     -103.717445      -32.252628
 C         -36.892643     -103.631767      -33.073441
 C         -37.994728     -104.243126      -30.864683
 C         -35.760506     -102.847008      -32.410713
 C         -36.696335     -103.723907      -30.216635
 C         -35.348282     -103.508781      -31.037571
 H         -37.203857     -102.942596      -33.892605
 H         -36.601070     -104.597565      -33.443146
 H         -38.977386     -103.980324      -30.405329
 H         -37.963966     -105.283600      -30.989902
 H         -36.004768     -101.828728      -32.153641
 H         -34.966438     -102.848480      -33.071644
 H         -36.543453     -104.448326      -29.479223
 H         -36.759483     -102.689308      -29.665312
 H         -34.630032     -103.034828      -30.467005
 H         -34.933559     -104.539238      -31.180426
