20
 generated by VMD
 C         -29.357613      -87.979744      -24.995859
 N         -28.863976      -88.097580      -26.015379
 H         -31.210897      -89.217751      -27.363983
 H         -29.710340      -88.014725      -23.997219
 C         -32.263531      -89.497086      -27.237625
 C         -32.835709      -89.453835      -25.796675
 C         -33.319698      -89.295486      -28.360359
 C         -33.487549      -88.069511      -25.758934
 C         -34.137062      -88.043137      -28.144297
 C         -34.645271      -87.973503      -26.697317
 H         -32.025974      -89.598289      -25.087946
 H         -33.661289      -90.250771      -25.762175
 H         -33.040161      -89.305527      -29.414808
 H         -34.067204      -90.107391      -28.331791
 H         -32.692841      -87.202072      -25.972666
 H         -33.708183      -87.939743      -24.679605
 H         -35.003025      -87.961967      -28.842274
 H         -33.559338      -87.163719      -28.376808
 H         -35.183308      -87.013084      -26.453411
 H         -35.270012      -88.886833      -26.554199
