20
 generated by VMD
 C         -12.047583      -37.464523       -7.441040
 N         -11.030583      -37.846741       -7.800969
 H         -12.355443      -41.040726       -8.361570
 H         -13.494313      -40.250282       -7.193331
 C         -13.475141      -40.843979       -8.170644
 C         -14.199903      -42.159180       -8.126822
 C         -14.081026      -39.930656       -9.265709
 C         -15.752160      -41.940392       -7.826295
 C         -15.638463      -39.712708       -9.173488
 C         -16.365116      -41.020554       -8.902273
 H         -13.808740      -42.920395       -7.424306
 H         -14.105075      -42.717319       -9.061503
 H         -13.548311      -38.962479       -9.384488
 H         -13.883172      -40.387993      -10.226532
 H         -15.880660      -41.535694       -6.835639
 H         -16.328289      -42.892200       -7.767299
 H         -16.004774      -39.229210      -10.049705
 H         -15.692670      -38.997635       -8.296685
 H         -17.415222      -40.863388       -8.526207
 H         -16.440781      -41.632252       -9.834735
