20
 generated by VMD
 C         -60.175034     -157.334366      -56.218639
 N         -59.584335     -158.238586      -56.636204
 H         -60.182175     -157.606277      -52.623451
 H         -60.666527     -156.492249      -55.791443
 C         -59.324196     -158.242447      -52.843189
 C         -58.035484     -157.843445      -52.292274
 C         -59.668201     -159.618286      -53.136730
 C         -57.745544     -158.782135      -51.161442
 C         -59.411152     -160.552795      -51.989120
 C         -57.963509     -160.245224      -51.479084
 H         -58.118286     -156.831177      -51.968693
 H         -57.214695     -157.818985      -53.120808
 H         -60.716423     -159.612015      -53.455421
 H         -59.247208     -159.827744      -54.109341
 H         -58.530022     -158.413055      -50.380146
 H         -56.742474     -158.572479      -50.755367
 H         -59.392357     -161.602600      -52.270103
 H         -60.244999     -160.370712      -51.201389
 H         -57.809864     -160.826004      -50.432873
 H         -57.210167     -160.530746      -52.193882
