20
 generated by VMD
 C         -47.626244     -139.478363      -45.890175
 N         -46.701595     -138.943817      -46.297489
 H         -51.000580     -138.494781      -44.807793
 H         -48.537861     -139.869690      -45.397751
 C         -51.854717     -138.953720      -45.282669
 C         -51.940289     -139.340561      -46.663273
 C         -53.071831     -138.761368      -44.469955
 C         -53.012554     -140.299957      -46.921803
 C         -54.196423     -139.687531      -44.860069
 C         -54.340347     -139.892319      -46.395290
 H         -50.970383     -139.879166      -47.044926
 H         -51.958385     -138.447159      -47.324688
 H         -52.703197     -139.032944      -43.469879
 H         -53.362083     -137.721786      -44.327171
 H         -52.646690     -141.266983      -46.433704
 H         -53.056381     -140.510269      -47.997368
 H         -55.163635     -139.373001      -44.512432
 H         -54.076542     -140.646957      -44.200798
 H         -55.184448     -140.601288      -46.699284
 H         -54.678486     -138.990601      -46.801891
