20
 generated by VMD
 C         -12.299052      -30.756271       -8.472915
 N         -11.951694      -30.608461       -7.403540
 H         -11.720532      -34.650818       -7.923960
 H         -12.853715      -33.978497       -6.774951
 C         -11.866570      -34.607121       -6.820878
 C         -10.704089      -33.811115       -6.148674
 C         -12.104236      -35.962219       -6.027773
 C         -11.124681      -33.590157       -4.651422
 C         -12.400116      -35.759995       -4.542490
 C         -11.286829      -34.949852       -3.944616
 H         -10.631618      -32.877415       -6.632185
 H          -9.681720      -34.276031       -6.272704
 H         -12.977646      -36.431744       -6.503283
 H         -11.240320      -36.651012       -6.178770
 H         -12.061390      -33.072514       -4.508003
 H         -10.362369      -33.076328       -4.150181
 H         -12.382004      -36.672989       -4.062281
 H         -13.341993      -35.232025       -4.290213
 H         -11.554239      -34.841599       -2.885967
 H         -10.349923      -35.486332       -3.946435
