20
 generated by VMD
 C         -58.316910     -168.439987      -54.999695
 N         -57.124939     -168.598389      -54.915295
 H         -61.665600     -167.855682      -55.606632
 H         -59.384312     -168.232346      -54.911461
 C         -62.385666     -167.295410      -56.122231
 C         -62.635876     -167.669861      -57.540390
 C         -62.935738     -166.031021      -55.606323
 C         -64.085968     -167.546219      -57.888042
 C         -64.452530     -165.839554      -56.001411
 C         -64.740005     -166.174271      -57.465412
 H         -62.519508     -168.816528      -57.762222
 H         -62.038593     -167.087616      -58.263477
 H         -62.812645     -165.967957      -54.474178
 H         -62.388008     -165.178085      -55.868057
 H         -64.664337     -168.219269      -57.247883
 H         -64.390312     -167.714523      -58.950245
 H         -64.695587     -164.844589      -55.610157
 H         -64.861603     -166.762802      -55.375736
 H         -65.827240     -166.180771      -57.633636
 H         -64.384995     -165.474365      -58.242901
