20
 generated by VMD
 C         -30.850273      -92.800812      -26.291853
 N         -30.750971      -92.510391      -25.141771
 H         -32.491276      -90.077950      -26.458448
 H         -31.081865      -92.989128      -27.291159
 C         -33.176491      -90.436852      -27.206490
 C         -33.984600      -91.694771      -27.081251
 C         -33.263466      -89.596191      -28.475277
 C         -35.250435      -91.711586      -27.992397
 C         -34.584324      -89.756401      -29.278681
 C         -35.144585      -91.189293      -29.391016
 H         -34.471832      -91.954254      -26.073246
 H         -33.475163      -92.726974      -27.254833
 H         -33.182312      -88.555710      -28.103292
 H         -32.250278      -89.681000      -29.030743
 H         -36.149910      -91.319916      -27.432144
 H         -35.548683      -92.722397      -28.157055
 H         -34.311317      -89.281715      -30.219807
 H         -35.323933      -89.046379      -28.881952
 H         -36.114796      -91.141090      -29.928082
 H         -34.535904      -91.757195      -30.066959
