20
 generated by VMD
 C         -21.151575      -52.265362       -9.661149
 N         -21.365520      -52.584312      -10.756985
 H         -19.460981      -50.037170      -12.240955
 H         -20.633377      -51.588959       -8.638144
 C         -18.395380      -50.275890      -12.357122
 C         -17.911436      -51.608097      -12.816096
 C         -17.505928      -49.015209      -12.372043
 C         -16.954443      -51.373539      -13.968881
 C         -16.282173      -49.025482      -13.324183
 C         -15.778415      -50.424809      -13.616903
 H         -18.738928      -52.229015      -13.193528
 H         -17.416105      -52.060589      -11.955298
 H         -18.134428      -48.124039      -12.568107
 H         -17.136854      -48.950344      -11.357492
 H         -17.493992      -51.042225      -14.842045
 H         -16.621775      -52.391083      -14.254388
 H         -15.384594      -48.579704      -12.723692
 H         -16.427923      -48.337208      -14.144193
 H         -15.026672      -50.353222      -14.411519
 H         -15.325855      -50.819077      -12.707516
