20
 generated by VMD
 C         -69.716011     -183.203659      -65.229393
 N         -69.953743     -182.394516      -66.007896
 H         -67.622803     -184.757736      -62.893810
 H         -69.510620     -183.989609      -64.567734
 C         -67.901085     -184.016220      -62.168827
 C         -67.935661     -184.410782      -60.693146
 C         -67.828064     -182.632675      -62.674850
 C         -67.057121     -183.478134      -59.964138
 C         -67.028770     -181.697769      -61.683937
 C         -67.470268     -181.996460      -60.178825
 H         -67.876274     -185.500183      -60.575626
 H         -69.016815     -184.324799      -60.388439
 H         -67.193542     -182.474060      -63.629414
 H         -68.871193     -182.328857      -62.776001
 H         -66.009300     -183.674988      -60.169106
 H         -67.220757     -183.584106      -58.855743
 H         -67.238823     -180.630692      -61.967102
 H         -65.895126     -181.925262      -61.806458
 H         -67.081459     -181.358185      -59.319199
 H         -68.520935     -181.870132      -60.071480
