20
 generated by VMD
 C         -60.597111     -155.978653      -54.242218
 N         -60.945621     -156.301376      -55.301353
 H         -59.325871     -155.828873      -51.088676
 H         -60.191944     -155.540390      -53.352207
 C         -58.345985     -155.552277      -51.444595
 C         -57.605858     -154.587036      -50.541687
 C         -57.536438     -156.361313      -52.390564
 C         -56.283043     -155.311798      -50.031517
 C         -56.398846     -157.116272      -51.797695
 C         -55.529877     -156.153625      -51.072758
 H         -58.327217     -154.413055      -49.791416
 H         -57.309982     -153.713318      -51.174477
 H         -58.261692     -157.033554      -52.899078
 H         -56.981731     -155.759781      -53.229954
 H         -56.706097     -156.060471      -49.214207
 H         -55.657166     -154.733292      -49.324295
 H         -55.854279     -157.594879      -52.575863
 H         -56.737339     -158.016861      -51.155708
 H         -54.732357     -156.698090      -50.472416
 H         -55.024155     -155.459686      -51.719864
