20
 generated by VMD
 C         -12.619896      -27.373255       -4.719667
 N         -13.505180      -28.069048       -4.660642
 H         -10.694545      -29.904594       -2.500083
 H         -10.591327      -28.462679       -3.650872
 C         -10.028459      -29.337954       -3.181901
 C          -9.471810      -30.111055       -4.416745
 C          -8.853550      -28.765135       -2.334839
 C          -8.602400      -29.181742       -5.260471
 C          -8.002279      -27.782387       -3.227684
 C          -7.435367      -28.547686       -4.404495
 H         -10.285353      -30.508642       -5.074326
 H          -8.892542      -30.921026       -4.012700
 H          -9.152696      -28.234009       -1.420473
 H          -8.235694      -29.551445       -1.954534
 H          -9.200827      -28.297953       -5.580103
 H          -8.185095      -29.718206       -6.177889
 H          -7.270688      -27.277609       -2.594267
 H          -8.717226      -27.044016       -3.502224
 H          -6.835116      -27.924185       -5.085121
 H          -6.856642      -29.378714       -4.036071
