20
 generated by VMD
 C         -49.482624     -133.056442      -46.890331
 N         -48.499599     -132.901871      -47.424862
 H         -48.254456     -134.540146      -43.699177
 H         -50.312508     -133.156158      -46.244202
 C         -49.257530     -134.851791      -43.924286
 C         -49.565552     -136.257828      -44.337994
 C         -50.259193     -134.047913      -43.168903
 C         -50.146927     -137.008163      -43.121147
 C         -50.782478     -134.779968      -42.029453
 C         -51.279736     -136.224319      -42.449375
 H         -48.592243     -136.724075      -44.695972
 H         -50.201660     -136.235931      -45.178032
 H         -49.877842     -132.978210      -42.924171
 H         -51.082626     -133.903931      -43.891609
 H         -49.337807     -137.135330      -42.359291
 H         -50.387871     -137.932739      -43.598072
 H         -51.694324     -134.383072      -41.608089
 H         -49.990417     -134.862946      -41.271091
 H         -51.885288     -136.889160      -41.774803
 H         -52.092968     -136.200027      -43.211487
