20
 generated by VMD
 C         -33.616592      -96.163170      -25.446886
 N         -34.168163      -96.790146      -26.271755
 H         -34.834198      -94.145935      -27.340130
 H         -33.141247      -95.618248      -24.662018
 C         -34.922192      -93.990746      -28.386129
 C         -35.941288      -94.622810      -29.303967
 C         -33.573795      -93.742119      -29.063902
 C         -36.111683      -93.634583      -30.457428
 C         -33.735332      -92.822502      -30.266012
 C         -34.847664      -93.475372      -31.228895
 H         -36.857948      -94.894943      -28.745132
 H         -35.564419      -95.537445      -29.691822
 H         -32.803890      -93.187599      -28.470203
 H         -33.106556      -94.692978      -29.286516
 H         -36.300728      -92.617210      -30.159401
 H         -36.814514      -93.969620      -31.204281
 H         -32.815651      -92.830147      -30.950996
 H         -33.958694      -91.866493      -29.861698
 H         -34.995041      -92.715706      -31.967545
 H         -34.391563      -94.217102      -31.730579
