20
 generated by VMD
 C         -30.482779      -93.972916      -25.468807
 N         -29.470987      -93.647621      -24.976301
 H         -33.760712      -92.640686      -26.884560
 H         -31.511169      -94.195549      -25.824341
 C         -34.281921      -92.034943      -27.577015
 C         -35.704639      -92.142418      -27.799326
 C         -33.406639      -91.391403      -28.634806
 C         -36.382648      -91.507545      -29.020758
 C         -34.171345      -90.485512      -29.625847
 C         -35.454151      -91.006516      -30.136236
 H         -36.339714      -92.067215      -26.777431
 H         -35.977482      -93.188744      -28.108440
 H         -32.579472      -90.763817      -28.293310
 H         -33.107018      -92.282234      -29.306522
 H         -36.710903      -90.582489      -28.518942
 H         -37.231396      -92.065002      -29.283487
 H         -33.604668      -90.254753      -30.578768
 H         -34.364479      -89.564224      -29.086878
 H         -36.003006      -90.185402      -30.617884
 H         -35.535000      -91.817245      -30.806005
