20
 generated by VMD
 C         -27.510689      -81.158928      -27.363073
 N         -28.530920      -81.653336      -27.612551
 H         -30.240023      -83.439293      -25.566715
 H         -26.702639      -80.735756      -26.920879
 C         -30.780781      -84.192322      -24.985092
 C         -30.567812      -84.119591      -23.487715
 C         -31.534431      -85.357513      -25.635927
 C         -31.775251      -84.629074      -22.749025
 C         -32.663425      -85.772461      -24.748001
 C         -32.317448      -85.941696      -23.307831
 H         -30.326679      -83.099060      -23.076420
 H         -29.738464      -84.610298      -23.109270
 H         -31.761272      -85.104691      -26.683743
 H         -30.841541      -86.212448      -25.808622
 H         -32.543701      -83.769043      -22.749037
 H         -31.425676      -84.840843      -21.772144
 H         -33.076466      -86.641342      -25.132097
 H         -33.500088      -84.986031      -24.771296
 H         -33.151287      -86.336426      -22.722324
 H         -31.547897      -86.694603      -23.250284
