20
 generated by VMD
 C         -50.130165     -144.852203      -44.480289
 N         -49.350502     -143.987015      -44.709881
 H         -52.604916     -142.302124      -45.700310
 H         -50.773788     -145.731506      -44.264599
 C         -53.160839     -142.213852      -46.609375
 C         -52.381634     -142.420090      -48.014046
 C         -54.485458     -141.665710      -46.545315
 C         -53.322514     -142.668335      -49.197971
 C         -55.330864     -142.138763      -47.821442
 C         -54.582916     -141.777481      -49.096222
 H         -51.650711     -143.166290      -47.946384
 H         -52.033379     -141.442184      -48.087757
 H         -55.006680     -142.099442      -45.700218
 H         -54.492363     -140.651215      -46.526276
 H         -53.536755     -143.747864      -49.054863
 H         -52.962574     -142.523453      -50.243191
 H         -56.329750     -141.722366      -47.809147
 H         -55.584637     -143.191895      -47.741749
 H         -55.244698     -141.968994      -49.919487
 H         -54.273174     -140.751770      -49.104076
