20
 generated by VMD
 C         -67.884567     -185.811569      -67.375092
 N         -68.741127     -186.543579      -67.672646
 H         -68.640923     -187.505630      -64.827339
 H         -67.115639     -185.128479      -67.036217
 C         -69.293839     -187.622620      -63.912037
 C         -68.800911     -186.977890      -62.651291
 C         -70.710358     -188.041428      -64.048164
 C         -69.612175     -187.141602      -61.404213
 C         -71.361115     -188.380859      -62.715359
 C         -71.144539     -187.303436      -61.676430
 H         -68.409081     -185.968582      -62.800838
 H         -67.822418     -187.430542      -62.487137
 H         -71.258980     -187.235626      -64.584297
 H         -70.878754     -188.940979      -64.785812
 H         -69.621193     -186.240891      -60.797394
 H         -69.207909     -188.044525      -60.831406
 H         -70.921860     -189.299011      -62.462734
 H         -72.399620     -188.584991      -62.759003
 H         -71.642342     -186.340576      -62.135784
 H         -71.526680     -187.519333      -60.705280
