20
 generated by VMD
 C         -52.998623     -146.740479      -44.650337
 N         -51.812824     -146.827103      -44.829708
 H         -54.092888     -146.213623      -47.293598
 H         -54.033279     -146.550858      -44.353153
 C         -54.156376     -145.451920      -48.019779
 C         -52.950382     -145.327194      -48.922787
 C         -54.857819     -144.260757      -47.715191
 C         -53.413799     -144.557098      -50.208672
 C         -55.297939     -143.448654      -48.954597
 C         -54.209480     -143.221069      -49.928837
 H         -52.631733     -146.336014      -49.203972
 H         -52.004238     -144.837616      -48.591091
 H         -55.834984     -144.400955      -47.139671
 H         -54.176208     -143.659912      -47.095238
 H         -54.120281     -145.098602      -50.978184
 H         -52.592430     -144.167084      -50.964710
 H         -55.729588     -142.495865      -48.461533
 H         -56.138920     -143.930695      -49.458714
 H         -54.643703     -142.802917      -50.890705
 H         -53.457211     -142.544693      -49.531654
