20
 generated by VMD
 C         -38.529148     -115.362625      -35.447067
 N         -39.295338     -115.318146      -34.554550
 H         -41.403450     -115.222252      -36.965900
 H         -37.888397     -115.376625      -36.343815
 C         -42.422340     -115.563606      -37.151951
 C         -42.810909     -115.485619      -38.602192
 C         -43.440407     -115.332764      -36.051838
 C         -44.254856     -116.040062      -38.848351
 C         -44.743305     -116.117126      -36.308502
 C         -45.315613     -115.829163      -37.751221
 H         -42.094616     -116.008850      -39.191105
 H         -42.844765     -114.407196      -38.813713
 H         -43.100277     -115.585838      -35.078297
 H         -43.594341     -114.275764      -36.168098
 H         -44.117424     -117.110573      -38.993553
 H         -44.788040     -115.652161      -39.757454
 H         -45.452797     -115.949577      -35.566948
 H         -44.532829     -117.162628      -36.293732
 H         -46.223244     -116.581161      -37.747669
 H         -45.836899     -114.949303      -37.691795
