20
 generated by VMD
 C         -28.623020      -73.602089      -19.027517
 N         -29.560287      -74.043839      -18.492817
 H         -25.366119      -72.856384      -18.736481
 H         -27.937258      -73.191116      -19.784111
 C         -25.619928      -72.676178      -19.813402
 C         -24.982233      -73.676918      -20.682705
 C         -25.752848      -71.276009      -20.415182
 C         -25.508770      -73.679268      -22.116821
 C         -26.300653      -71.393211      -21.872324
 C         -25.460987      -72.265717      -22.853214
 H         -25.283878      -74.717072      -20.151653
 H         -23.898045      -73.661911      -20.609013
 H         -26.408459      -70.644417      -19.787046
 H         -24.769924      -70.775574      -20.408716
 H         -26.492884      -74.147720      -22.241482
 H         -24.845366      -74.310303      -22.719864
 H         -26.375326      -70.237869      -22.189716
 H         -27.391703      -71.743759      -21.852209
 H         -25.878452      -72.399757      -23.896103
 H         -24.538752      -71.792503      -22.888945
