20
 generated by VMD
 C         -38.621880      -99.087585      -27.125116
 N         -37.695866      -99.011292      -26.404154
 H         -36.869148      -97.431740      -29.922579
 H         -39.505962      -99.127289      -27.648098
 C         -36.013123      -96.896812      -30.341204
 C         -35.460640      -97.498039      -31.585522
 C         -35.318684      -95.994202      -29.460556
 C         -34.490383      -96.579597      -32.297729
 C         -34.022663      -95.300804      -30.033436
 C         -33.442799      -96.046272      -31.265829
 H         -36.328526      -97.845894      -32.147060
 H         -34.955952      -98.484299      -31.299637
 H         -35.932560      -95.102577      -29.243864
 H         -35.225060      -96.558266      -28.515022
 H         -35.211346      -95.829361      -32.629028
 H         -34.030922      -97.122169      -33.142082
 H         -33.250229      -95.240700      -29.225876
 H         -34.057388      -94.212509      -30.350031
 H         -32.691959      -95.210449      -31.684149
 H         -32.836720      -96.837234      -30.922558
