20
 generated by VMD
 C         -38.896572     -111.447159      -36.481197
 N         -38.355385     -110.419952      -36.554489
 H         -40.219582     -114.226120      -34.986679
 H         -39.248016     -112.430435      -36.608246
 C         -41.026382     -113.499115      -35.332314
 C         -41.690380     -113.860916      -36.590637
 C         -41.823704     -112.757217      -34.358780
 C         -43.176579     -114.083794      -36.644180
 C         -43.307976     -112.872818      -34.434723
 C         -43.914600     -113.043709      -35.825611
 H         -41.100033     -114.720497      -37.049652
 H         -41.459518     -113.062050      -37.319321
 H         -41.417618     -112.949005      -33.383278
 H         -41.413513     -111.800240      -34.551228
 H         -43.259403     -115.048035      -36.121021
 H         -43.568523     -114.058487      -37.607109
 H         -43.654480     -111.962822      -33.873829
 H         -43.815884     -113.616417      -33.791069
 H         -44.965763     -113.213020      -35.723335
 H         -43.750957     -112.036133      -36.370586
