20
 generated by VMD
 C         -12.464112      -26.995956       -2.674234
 N         -12.755646      -27.782150       -1.945098
 H         -10.558273      -26.772333       -4.183869
 H          -9.301571      -26.073389       -5.235597
 C          -9.481221      -26.755758       -4.342774
 C          -9.005670      -28.185040       -4.523827
 C          -8.807405      -25.984034       -3.153334
 C          -7.501749      -28.289717       -4.470816
 C          -7.301195      -26.074808       -3.191727
 C          -6.858042      -27.612692       -3.295638
 H          -9.491536      -28.555325       -5.441953
 H          -9.392587      -28.957682       -3.813534
 H          -9.173277      -24.943865       -3.119892
 H          -9.270458      -26.407875       -2.228544
 H          -7.054640      -27.939190       -5.344937
 H          -7.206758      -29.325838       -4.467447
 H          -6.865419      -25.670549       -2.295914
 H          -6.890455      -25.519531       -4.064870
 H          -5.749438      -27.664549       -3.372392
 H          -7.180440      -28.058331       -2.342544
