20
 generated by VMD
 C         -22.548393      -55.589554      -16.469975
 N         -23.120237      -54.523865      -16.451651
 H         -19.805387      -55.420860      -15.371724
 H         -21.977764      -56.429520      -16.406265
 C         -19.745928      -56.460480      -14.967428
 C         -20.700882      -56.642059      -13.716225
 C         -18.621159      -57.562214      -15.294372
 C         -20.997723      -58.172440      -13.431479
 C         -18.938673      -58.982098      -14.676977
 C         -19.748543      -59.091755      -13.349769
 H         -21.561945      -56.014999      -13.756184
 H         -20.108099      -56.358505      -12.886179
 H         -18.502182      -57.664036      -16.333347
 H         -17.657543      -57.128738      -14.923243
 H         -21.655117      -58.664497      -14.136411
 H         -21.515596      -58.320381      -12.450906
 H         -17.958338      -59.445492      -14.558113
 H         -19.517801      -59.562614      -15.465872
 H         -20.140327      -60.076057      -13.069156
 H         -19.100475      -58.772812      -12.481166
