20
 generated by VMD
 C         -50.624969     -128.875961      -42.366592
 N         -51.450352     -128.189316      -41.839794
 H         -47.995464     -128.186035      -40.928440
 H         -49.921421     -129.461746      -42.954456
 C         -47.108753     -127.574631      -40.699223
 C         -45.926296     -128.225159      -40.151199
 C         -47.030949     -126.103851      -41.196739
 C         -44.613483     -127.845093      -40.870514
 C         -45.679981     -125.769836      -41.954185
 C         -44.519821     -126.426636      -41.194069
 H         -46.045197     -129.296082      -40.136555
 H         -45.794132     -127.785164      -39.112534
 H         -47.687046     -125.870674      -42.001968
 H         -47.206951     -125.463860      -40.402824
 H         -44.422302     -128.475647      -41.762547
 H         -43.763985     -128.162674      -40.281837
 H         -45.511757     -124.656425      -42.210106
 H         -45.719406     -126.230675      -43.008202
 H         -43.617409     -126.251801      -41.799080
 H         -44.278507     -125.837219      -40.289436
