20
 generated by VMD
 C         -40.917728     -119.323738      -34.896965
 N         -39.897072     -118.935036      -35.327843
 H         -43.620003     -117.085342      -36.290909
 H         -41.780033     -119.782837      -34.366726
 C         -44.014385     -117.296249      -37.250702
 C         -43.020309     -117.664047      -38.286304
 C         -45.296215     -116.672806      -37.708290
 C         -43.724617     -118.455307      -39.473309
 C         -45.986843     -117.484871      -38.731220
 C         -44.964725     -117.633530      -39.867599
 H         -42.376427     -118.420433      -37.888268
 H         -42.550854     -116.762787      -38.764122
 H         -46.022331     -116.572029      -36.799366
 H         -45.097363     -115.657600      -38.057316
 H         -44.106960     -119.537621      -39.342228
 H         -43.001392     -118.405769      -40.353512
 H         -46.936295     -116.967285      -39.063091
 H         -46.350548     -118.568275      -38.497292
 H         -45.503185     -117.877708      -40.882591
 H         -44.558247     -116.672295      -40.094006
