20
 generated by VMD
 C         -57.056778     -150.914352      -48.102676
 N         -58.180420     -150.949890      -48.558590
 H         -54.197582     -148.990417      -47.406563
 H         -56.055088     -150.913239      -47.733742
 C         -54.288868     -148.529083      -48.402004
 C         -53.529644     -149.353760      -49.412838
 C         -54.580914     -147.126053      -48.804741
 C         -54.354027     -149.277237      -50.653938
 C         -55.277664     -147.106140      -50.071220
 C         -54.526592     -147.844742      -51.122261
 H         -53.426659     -150.325027      -49.038841
 H         -52.562233     -148.909897      -49.765911
 H         -55.258320     -146.674133      -48.017933
 H         -53.586121     -146.530945      -48.832386
 H         -55.394482     -149.650696      -50.579834
 H         -53.794941     -149.856522      -51.428818
 H         -55.514378     -146.075485      -50.439327
 H         -56.305832     -147.646179      -49.980461
 H         -55.117619     -148.025558      -52.027271
 H         -53.579453     -147.507523      -51.502174
