20
 generated by VMD
 C         -59.932850     -171.576141      -55.276501
 N         -59.497810     -172.562897      -54.892853
 H         -63.068699     -170.463745      -56.813198
 H         -60.375061     -170.624969      -55.539062
 C         -63.497257     -169.485489      -56.908974
 C         -62.530506     -168.350754      -57.414173
 C         -64.938675     -169.232819      -56.822319
 C         -63.124947     -167.899673      -58.713188
 C         -65.391014     -168.731888      -58.207073
 C         -64.551567     -167.580551      -58.844643
 H         -61.565266     -168.595184      -57.552299
 H         -62.603340     -167.401352      -56.750572
 H         -65.653076     -170.041748      -56.714592
 H         -65.167343     -168.402344      -56.030697
 H         -62.808361     -168.642654      -59.459492
 H         -62.560196     -167.071259      -59.037018
 H         -66.445755     -168.378555      -58.092239
 H         -65.304955     -169.513123      -58.956730
 H         -64.946457     -167.573944      -59.856609
 H         -64.766525     -166.631714      -58.369362
