20
 generated by VMD
 C         -77.264763     -203.538071      -67.131744
 N         -77.993431     -204.384689      -66.778267
 H         -75.799255     -200.850647      -68.780594
 H         -76.675560     -202.813126      -67.717934
 C         -74.856987     -200.322083      -68.817268
 C         -74.760178     -198.830139      -68.595535
 C         -73.741745     -201.078583      -69.601273
 C         -73.616432     -198.075638      -69.373375
 C         -72.779419     -200.174011      -70.429741
 C         -73.361740     -198.816177      -70.738503
 H         -74.625771     -198.789703      -67.502563
 H         -75.794304     -198.314194      -68.829559
 H         -73.203522     -201.756271      -68.873863
 H         -74.262993     -201.759674      -70.329231
 H         -72.657936     -198.107910      -68.843239
 H         -73.794464     -197.027481      -69.467545
 H         -72.406776     -200.771362      -71.310310
 H         -71.846626     -200.138306      -69.832809
 H         -72.715836     -198.230560      -71.327805
 H         -74.326126     -198.708450      -71.372955
