20
 generated by VMD
 C         -61.175934     -154.918610      -53.546585
 N         -61.418171     -154.713593      -52.477570
 H         -57.836613     -155.084061      -52.424965
 H         -60.822617     -155.103241      -54.540375
 C         -57.119156     -154.451981      -51.924980
 C         -57.313889     -154.153320      -50.421402
 C         -55.860767     -153.978409      -52.535465
 C         -56.147049     -154.617294      -49.505383
 C         -54.751820     -154.434341      -51.556343
 C         -54.892723     -154.056686      -50.183720
 H         -58.331608     -154.538544      -50.232536
 H         -57.530067     -153.154404      -50.095997
 H         -55.569805     -154.318039      -53.520908
 H         -55.820061     -152.902161      -52.458035
 H         -56.139347     -155.640686      -49.437332
 H         -56.476418     -154.195450      -48.585930
 H         -53.875938     -153.879654      -51.959450
 H         -54.607029     -155.488480      -51.595856
 H         -53.843300     -154.181244      -49.611645
 H         -54.952431     -152.977234      -50.096943
