20
 generated by VMD
 C         -79.097588     -206.650803      -75.431389
 N         -79.368294     -207.096237      -76.434311
 H         -78.687759     -209.921814      -73.228050
 H         -78.775749     -206.071152      -74.635933
 C         -78.055534     -209.937958      -72.279228
 C         -76.822327     -209.098892      -72.037308
 C         -78.269234     -210.966263      -71.165535
 C         -76.813797     -208.456406      -70.704674
 C         -78.265663     -210.381790      -69.745064
 C         -76.975548     -209.399582      -69.533890
 H         -76.710884     -208.310425      -72.790833
 H         -75.897507     -209.670120      -72.069420
 H         -79.098656     -211.510544      -71.529907
 H         -77.369614     -211.600723      -71.076248
 H         -77.482857     -207.599823      -70.669754
 H         -75.876434     -207.930283      -70.591812
 H         -77.989594     -211.132202      -68.970444
 H         -79.164375     -209.953644      -69.437462
 H         -77.128754     -208.670822      -68.709320
 H         -76.123672     -210.019699      -69.146355
