20
 generated by VMD
 C         -50.103809     -144.714798      -44.429001
 N         -49.313068     -143.910049      -44.829441
 H         -52.488827     -142.143143      -45.631649
 H         -50.772770     -145.392822      -43.899246
 C         -53.036785     -142.213058      -46.593304
 C         -52.322182     -142.280670      -47.931515
 C         -54.460873     -141.638947      -46.574493
 C         -53.309536     -142.543365      -49.104256
 C         -55.330948     -142.032288      -47.743641
 C         -54.654255     -141.828262      -49.046085
 H         -51.463940     -142.926620      -47.917522
 H         -51.847534     -141.301010      -48.180283
 H         -54.906857     -141.945572      -45.628834
 H         -54.324383     -140.522110      -46.361523
 H         -53.601326     -143.711563      -49.035728
 H         -52.811321     -142.459427      -50.164036
 H         -56.186386     -141.382111      -47.648224
 H         -55.663448     -143.104462      -47.805733
 H         -55.261242     -142.292160      -49.896019
 H         -54.644329     -140.664963      -49.211807
