20
 generated by VMD
 C         -22.454893      -55.506767      -16.420076
 N         -23.164183      -54.631737      -16.255760
 H         -19.854053      -55.682808      -15.596826
 H         -22.082882      -56.401134      -16.280506
 C         -19.860079      -56.660519      -15.064404
 C         -20.485697      -56.602909      -13.758470
 C         -18.651365      -57.469830      -15.112012
 C         -20.928282      -57.989674      -13.505395
 C         -19.013935      -58.867752      -14.728623
 C         -19.722683      -58.856434      -13.356497
 H         -21.230402      -55.739746      -13.727187
 H         -19.746935      -56.303596      -12.955728
 H         -18.008862      -57.478405      -16.045994
 H         -17.919333      -57.089958      -14.394507
 H         -21.578671      -58.491234      -14.286219
 H         -21.481750      -57.980434      -12.571173
 H         -17.993595      -59.311256      -14.591947
 H         -19.548225      -59.388340      -15.496952
 H         -20.085989      -59.845364      -13.021053
 H         -19.045263      -58.520123      -12.616269
