20
 generated by VMD
 C         -79.695564     -206.964188      -74.311531
 N         -80.392029     -206.051300      -74.597244
 H         -77.980972     -206.796936      -71.959412
 H         -79.016205     -207.758545      -73.878448
 C         -77.113869     -207.228378      -71.566124
 C         -75.916176     -206.422241      -71.560555
 C         -77.276871     -208.464600      -70.773354
 C         -75.464348     -206.159576      -70.147926
 C         -76.785881     -208.094162      -69.282745
 C         -75.394318     -207.471100      -69.273117
 H         -76.004906     -205.340454      -71.944489
 H         -75.114838     -206.974884      -72.130836
 H         -78.304565     -208.829041      -70.839798
 H         -76.558090     -209.155045      -71.222511
 H         -75.982536     -205.359818      -69.631760
 H         -74.496971     -205.641998      -70.314934
 H         -76.703468     -209.115448      -68.816193
 H         -77.435822     -207.488022      -68.731903
 H         -74.858368     -207.179428      -68.421532
 H         -74.676788     -208.223587      -69.788933
