20
 generated by VMD
 C         -69.981544     -182.995850      -65.956947
 N         -71.097748     -183.152542      -65.676865
 H         -67.483810     -183.026245      -63.134872
 H         -68.910049     -182.798553      -66.181839
 C         -67.437363     -182.635025      -62.135799
 C         -67.649185     -183.513062      -60.992794
 C         -67.235313     -181.171143      -61.940357
 C         -66.838486     -183.203674      -59.732677
 C         -66.277145     -180.886703      -60.851639
 C         -66.721970     -181.662781      -59.577427
 H         -67.241852     -184.459793      -61.341763
 H         -68.656166     -183.469360      -60.635582
 H         -66.874847     -180.891281      -62.986832
 H         -68.130363     -180.713455      -61.718765
 H         -65.757217     -183.700012      -59.896065
 H         -67.292030     -183.893356      -58.956394
 H         -66.312180     -179.815125      -60.683666
 H         -65.251900     -181.163254      -60.923241
 H         -66.000572     -181.541092      -58.704536
 H         -67.722107     -181.296967      -59.381481
