20
 generated by VMD
 C         -68.603157     -179.975967      -59.131165
 N         -68.298721     -180.270233      -60.203049
 H         -67.339699     -177.186752      -59.779678
 H         -68.985580     -179.715240      -58.154354
 C         -66.393158     -176.812912      -60.011456
 C         -66.037331     -176.434738      -61.339947
 C         -65.341705     -177.154694      -59.063187
 C         -64.953636     -175.298004      -61.396641
 C         -64.190399     -176.084503      -59.167809
 C         -63.767982     -175.798615      -60.584774
 H         -67.009514     -176.256729      -61.880768
 H         -65.663689     -177.343658      -61.889133
 H         -65.583298     -177.197617      -58.012386
 H         -64.855415     -178.112213      -59.296139
 H         -65.375862     -174.399200      -61.209427
 H         -64.540504     -175.389832      -62.406616
 H         -63.254906     -176.351547      -58.544754
 H         -64.646248     -175.121399      -58.863464
 H         -62.819981     -175.227051      -60.764435
 H         -63.446918     -176.843369      -60.860851
