20
 generated by VMD
 C         -50.020962     -142.933609      -45.456089
 N         -48.929970     -143.178619      -45.311005
 H         -51.896179     -140.001541      -45.671288
 H         -51.031666     -142.657822      -45.671768
 C         -52.656029     -140.495193      -46.259785
 C         -52.037552     -140.879227      -47.562344
 C         -54.139164     -140.525787      -45.984108
 C         -52.783394     -142.064240      -48.197147
 C         -54.796902     -141.782944      -46.595306
 C         -54.372265     -141.846329      -48.143215
 H         -51.051640     -141.191559      -47.516029
 H         -52.176739     -140.040237      -48.234150
 H         -54.180466     -140.541092      -44.904247
 H         -54.691856     -139.695679      -46.384487
 H         -52.514568     -142.896591      -47.557293
 H         -52.437267     -142.243881      -49.197914
 H         -55.862011     -141.622833      -46.409405
 H         -54.567768     -142.829498      -46.298615
 H         -54.845734     -142.695328      -48.584888
 H         -54.702423     -140.983810      -48.633369
