20
 generated by VMD
 C         -11.362285      -32.366623       -8.880337
 N         -12.133382      -32.784214       -9.595948
 H         -11.701857      -33.685558       -6.387466
 H         -12.464240      -34.198570       -4.818348
 C         -12.074983      -34.545174       -5.773783
 C         -10.990716      -35.587914       -5.607953
 C         -13.214027      -35.255516       -6.482902
 C         -11.479012      -36.822292       -4.834553
 C         -13.850525      -36.501400       -5.710740
 C         -12.707757      -37.464787       -5.359180
 H         -10.100204      -35.251621       -5.059452
 H         -10.685324      -35.936832       -6.591999
 H         -14.013697      -34.564789       -6.732084
 H         -12.816926      -35.742386       -7.398377
 H         -11.689507      -36.445148       -3.840206
 H         -10.628372      -37.529312       -4.730565
 H         -14.662122      -37.093517       -6.269528
 H         -14.298644      -36.103699       -4.807165
 H         -13.011169      -38.264061       -4.700915
 H         -12.484639      -37.957233       -6.279457
