20
 generated by VMD
 C         -50.170792     -145.157425      -44.766872
 N         -49.548344     -144.243042      -44.349812
 H         -52.798630     -143.050247      -45.909321
 H         -50.867008     -145.925018      -44.969227
 C         -53.270931     -142.657547      -46.788006
 C         -52.479252     -142.531265      -47.991173
 C         -54.515442     -141.881577      -46.747250
 C         -53.354702     -142.831924      -49.192558
 C         -55.457779     -142.110168      -47.975857
 C         -54.571457     -142.009109      -49.285057
 H         -51.644234     -143.239197      -47.917637
 H         -52.063072     -141.414474      -47.844486
 H         -55.194267     -142.063614      -45.875259
 H         -54.415848     -140.669067      -46.691917
 H         -53.666904     -143.913834      -49.133320
 H         -52.784435     -142.726227      -50.140255
 H         -56.252457     -141.340271      -47.984715
 H         -55.901028     -143.195847      -47.863358
 H         -55.198460     -142.261993      -50.192745
 H         -54.251446     -140.890976      -49.238300
