20
 generated by VMD
 C         -19.994194      -60.116070      -16.987932
 N         -18.914528      -60.479885      -17.159943
 H         -23.016134      -60.695690      -17.171152
 H         -21.060764      -59.645573      -17.070290
 C         -23.177059      -61.767460      -16.896626
 C         -23.579018      -62.650742      -18.097366
 C         -23.408056      -62.165272      -15.535874
 C         -23.890285      -64.128136      -17.803699
 C         -23.125746      -63.688114      -15.374101
 C         -23.995218      -64.490120      -16.320309
 H         -22.805868      -62.540783      -18.849268
 H         -24.344543      -62.120441      -18.626411
 H         -22.662695      -61.657162      -14.889276
 H         -24.282761      -61.760441      -15.103107
 H         -23.115751      -64.769302      -18.321280
 H         -24.762678      -64.345573      -18.424406
 H         -23.402851      -63.980000      -14.359149
 H         -22.085560      -63.928173      -15.682489
 H         -23.639530      -65.496094      -16.245640
 H         -24.996897      -64.434517      -15.992753
