20
 generated by VMD
 C         -41.054737     -103.176407      -35.636017
 N         -41.224670     -104.312782      -35.438438
 H         -39.191334     -104.224068      -33.463516
 H         -40.569794     -102.244743      -35.756493
 C         -38.660805     -104.985039      -33.039791
 C         -37.225479     -104.797668      -32.907780
 C         -39.215469     -106.388947      -32.816658
 C         -36.835529     -105.358215      -31.534788
 C         -38.796818     -106.866089      -31.411875
 C         -37.245731     -106.774261      -31.196478
 H         -36.919956     -103.787338      -32.970390
 H         -36.665230     -105.398178      -33.655838
 H         -40.317230     -106.371391      -32.837692
 H         -38.918957     -107.085815      -33.586624
 H         -36.933708     -104.549034      -30.808979
 H         -35.749432     -105.494232      -31.474363
 H         -39.121330     -107.826233      -31.240585
 H         -39.250866     -106.272812      -30.585438
 H         -36.792507     -106.994133      -30.235180
 H         -36.752693     -107.485626      -31.914215
