20
 generated by VMD
 C         -57.754726     -165.452057      -56.491882
 N         -57.732994     -166.640839      -56.307568
 H         -60.597031     -164.983475      -54.218124
 H         -57.826180     -164.365677      -56.648174
 C         -61.535408     -165.218689      -54.773857
 C         -61.799252     -166.675308      -55.245117
 C         -62.230621     -164.019272      -55.507648
 C         -63.356068     -166.798965      -55.418003
 C         -63.717937     -164.386505      -55.780491
 C         -63.866634     -165.768021      -56.371479
 H         -61.455570     -167.219299      -54.355797
 H         -61.265705     -166.820038      -56.165775
 H         -62.275166     -163.155411      -54.810696
 H         -61.676163     -163.738708      -56.476574
 H         -63.684807     -166.684662      -54.341972
 H         -63.696793     -167.802017      -55.678593
 H         -64.292313     -163.708176      -56.259792
 H         -64.221214     -164.426224      -54.821922
 H         -64.929420     -165.926758      -56.479649
 H         -63.280678     -165.883270      -57.272144
