20
 generated by VMD
 C         -12.570254      -27.825325       -4.644199
 N         -13.139051      -27.860643       -5.618506
 H         -10.920113      -30.805611       -2.966532
 H         -11.003778      -29.142017       -3.744502
 C         -10.360315      -30.019852       -3.398612
 C          -9.634679      -30.680464       -4.594360
 C          -9.359848      -29.408312       -2.440458
 C          -8.684513      -29.711969       -5.289237
 C          -8.419843      -28.351528       -3.152627
 C          -7.733449      -28.974260       -4.413442
 H         -10.373682      -31.066879       -5.308162
 H          -9.069316      -31.507591       -4.250723
 H          -9.867918      -28.997597       -1.519789
 H          -8.670153      -30.175898       -2.054133
 H          -9.286688      -29.029676       -5.836847
 H          -8.035283      -30.264599       -5.952554
 H          -7.654043      -27.923784       -2.423119
 H          -9.037564      -27.490578       -3.459295
 H          -7.281183      -28.142794       -5.029077
 H          -6.994836      -29.772383       -4.135079
