20
 generated by VMD
 C         -39.623623     -105.557503      -37.044926
 N         -40.492458     -106.252586      -37.361752
 H         -38.928772     -107.849686      -35.009762
 H         -38.755501     -104.954056      -36.857708
 C         -39.260727     -108.623398      -34.296867
 C         -38.399052     -108.996872      -33.222008
 C         -40.687283     -109.153816      -34.361046
 C         -39.063110     -109.167152      -31.852571
 C         -41.339157     -109.383942      -33.029968
 C         -40.353897     -109.991241      -32.079620
 H         -37.753681     -108.193031      -33.186993
 H         -37.939728     -109.855118      -33.567215
 H         -41.393085     -108.373528      -34.893166
 H         -40.683010     -109.971504      -35.079475
 H         -39.318214     -108.112244      -31.484676
 H         -38.230431     -109.573936      -31.101065
 H         -42.240520     -109.988670      -33.164974
 H         -41.861816     -108.519844      -32.577095
 H         -40.864960     -110.037827      -31.133148
 H         -40.188053     -110.996887      -32.420406
