20
 generated by VMD
 C         -15.113468      -46.234554       -6.031938
 N         -14.771344      -47.281223       -5.827125
 H         -15.654441      -44.958405       -9.385679
 H         -14.674085      -45.147900      -10.930132
 C         -15.661428      -45.059708      -10.483669
 C         -16.406313      -43.879303      -11.127982
 C         -16.439728      -46.363171      -10.839888
 C         -16.684174      -43.842461      -12.700527
 C         -16.549051      -46.374519      -12.357434
 C         -17.294683      -45.219215      -13.004205
 H         -15.936773      -42.945053      -10.887522
 H         -17.430105      -43.840820      -10.754667
 H         -15.807137      -47.201046      -10.438681
 H         -17.428213      -46.377739      -10.384984
 H         -15.721963      -43.786777      -13.204461
 H         -17.271463      -42.957275      -12.953949
 H         -17.077353      -47.301964      -12.628920
 H         -15.591861      -46.435398      -12.782726
 H         -17.268345      -45.455414      -14.084991
 H         -18.361778      -45.266869      -12.827948
