20
 generated by VMD
 C         -30.591072      -75.789612      -22.862423
 N         -30.911596      -75.254333      -23.867592
 H         -28.807350      -78.886192      -21.300150
 H         -30.030695      -76.555519      -22.173544
 C         -28.109322      -78.095711      -21.562897
 C         -27.185598      -78.224739      -22.802044
 C         -27.579807      -77.387024      -20.404345
 C         -26.651161      -76.832153      -23.198097
 C         -26.867567      -76.083893      -20.827805
 C         -25.915119      -76.321449      -21.955183
 H         -27.953415      -78.604980      -23.567991
 H         -26.278648      -78.974480      -22.639620
 H         -28.385233      -77.257408      -19.662941
 H         -26.914339      -78.102180      -19.921932
 H         -27.475821      -76.167770      -23.535942
 H         -25.794388      -76.810081      -23.889933
 H         -26.265781      -75.750023      -19.977411
 H         -27.639524      -75.453514      -21.059772
 H         -25.646711      -75.277168      -22.229036
 H         -25.012819      -76.804039      -21.783083
