20
 generated by VMD
 C         -47.504303     -137.973328      -46.086967
 N         -47.278332     -137.365219      -47.027161
 H         -50.315342     -137.331894      -44.452141
 H         -47.619480     -138.473969      -45.113499
 C         -51.322227     -137.599167      -44.756481
 C         -51.314171     -138.387009      -46.023773
 C         -52.609959     -137.431213      -44.037548
 C         -52.280693     -139.534790      -46.038410
 C         -53.436874     -138.662994      -43.963833
 C         -53.623081     -139.250458      -45.470055
 H         -50.300308     -138.717255      -46.209557
 H         -51.606800     -137.481247      -46.680565
 H         -52.270695     -137.245575      -43.040295
 H         -53.223858     -136.617996      -44.427502
 H         -51.834202     -140.323685      -45.344215
 H         -52.474995     -139.936539      -47.049355
 H         -54.355759     -138.452240      -43.534588
 H         -52.863808     -139.372238      -43.348927
 H         -54.275589     -140.114761      -45.415173
 H         -54.187328     -138.431335      -46.156334
