20
 generated by VMD
 C         -50.058674     -131.993179      -46.739418
 N         -49.988300     -132.515244      -47.718666
 H         -48.088440     -132.036499      -43.867702
 H         -50.238335     -131.411377      -45.805599
 C         -48.648144     -132.752411      -43.292721
 C         -49.532627     -133.809967      -43.781273
 C         -48.843628     -132.335083      -41.877544
 C         -49.462559     -135.085846      -42.935326
 C         -48.702980     -133.538818      -40.934139
 C         -49.472168     -134.824188      -41.483093
 H         -49.219635     -134.220093      -44.807312
 H         -50.570766     -133.639359      -43.791759
 H         -48.157650     -131.468307      -41.651577
 H         -49.788330     -131.908936      -41.737465
 H         -48.511517     -135.566986      -43.093929
 H         -50.275024     -135.748489      -43.212296
 H         -49.136337     -133.309921      -39.967197
 H         -47.530327     -133.696381      -40.876884
 H         -49.337921     -135.633957      -40.748344
 H         -50.504246     -134.561035      -41.201412
