20
 generated by VMD
 C         -59.989922     -156.739365      -56.014332
 N         -60.956707     -156.227112      -56.261990
 H         -59.829960     -157.740372      -53.273457
 H         -59.011044     -157.185226      -55.801239
 C         -58.768284     -157.973419      -52.934971
 C         -57.701088     -156.973602      -52.543491
 C         -58.662785     -159.336105      -52.440079
 C         -57.325550     -157.159515      -50.997066
 C         -58.367710     -159.474075      -50.950951
 C         -57.126888     -158.638016      -50.504776
 H         -58.119957     -155.989258      -52.684647
 H         -56.907196     -157.063538      -53.249981
 H         -59.454449     -160.067932      -52.603367
 H         -57.866550     -159.686111      -53.003544
 H         -57.960663     -156.674438      -50.300709
 H         -56.429222     -156.611237      -50.770596
 H         -58.326557     -160.534393      -50.628819
 H         -59.293789     -159.116745      -50.342987
 H         -56.805122     -158.777298      -49.469845
 H         -56.322716     -158.942032      -51.120342
