20
 generated by VMD
 C         -20.138042      -61.590904      -16.470869
 N         -19.669100      -61.071152      -17.408834
 H         -21.624903      -64.947586      -17.275930
 H         -20.809965      -62.038506      -15.685854
 C         -22.610703      -64.414818      -17.238703
 C         -23.246407      -63.888927      -18.510027
 C         -23.523609      -64.549187      -16.077625
 C         -24.538187      -64.642494      -18.793667
 C         -24.806847      -65.296326      -16.259796
 C         -25.462875      -64.673866      -17.442318
 H         -22.506199      -63.859119      -19.308304
 H         -23.446959      -62.845242      -18.414614
 H         -22.984594      -64.954132      -15.266056
 H         -23.843357      -63.545818      -15.772846
 H         -24.334553      -65.639679      -19.102125
 H         -25.137102      -64.040718      -19.493206
 H         -25.415834      -65.113991      -15.368774
 H         -24.605083      -66.391151      -16.369280
 H         -26.320017      -65.337807      -17.719593
 H         -25.823410      -63.594189      -17.224203
