20
 generated by VMD
 C         -38.687393     -113.681694      -35.718792
 N         -37.899776     -114.516296      -35.764587
 H         -41.362316     -114.769173      -35.719238
 H         -39.599674     -113.108574      -35.508648
 C         -42.264042     -114.412926      -36.223064
 C         -42.398823     -114.623085      -37.710655
 C         -43.506573     -114.230179      -35.394852
 C         -43.736065     -115.413948      -38.099869
 C         -44.499153     -115.343063      -35.808826
 C         -44.920162     -115.105568      -37.219986
 H         -41.474060     -115.160713      -37.891285
 H         -42.320976     -113.633125      -38.089539
 H         -43.346622     -114.544312      -34.368015
 H         -44.008835     -113.267532      -35.462902
 H         -43.575974     -116.465874      -37.913288
 H         -43.899323     -115.361702      -39.198372
 H         -45.325752     -115.367989      -35.068974
 H         -44.000160     -116.295845      -35.944355
 H         -45.750099     -115.751678      -37.485714
 H         -45.204655     -114.129837      -37.341133
