20
 generated by VMD
 C         -70.250748     -183.079880      -63.895626
 N         -69.851791     -183.213928      -64.989487
 H         -68.594574     -179.877213      -62.319290
 H         -70.724022     -182.962158      -62.915630
 C         -67.779053     -180.305923      -61.667671
 C         -67.809341     -181.792068      -61.382896
 C         -66.928154     -179.403259      -60.761501
 C         -66.482086     -182.474319      -60.912567
 C         -65.591156     -179.939789      -60.461971
 C         -65.648849     -181.457474      -59.957619
 H         -68.010025     -182.398254      -62.285740
 H         -68.495811     -181.950043      -60.458889
 H         -67.036049     -178.392563      -61.061359
 H         -67.600929     -179.416107      -59.848083
 H         -65.846016     -182.774643      -61.770302
 H         -66.617149     -183.495697      -60.432617
 H         -65.054962     -179.333099      -59.707649
 H         -64.926765     -179.762589      -61.331017
 H         -64.706032     -181.927994      -59.773544
 H         -66.114685     -181.467773      -58.920223
