20
 generated by VMD
 C         -60.262512     -156.281631      -56.065052
 N         -60.775433     -155.256454      -55.772964
 H         -59.698578     -158.155746      -53.105240
 H         -59.804199     -157.230118      -56.431644
 C         -58.841938     -157.920715      -52.359875
 C         -58.137352     -156.557098      -52.420849
 C         -58.176620     -159.087296      -51.836182
 C         -57.226776     -156.445175      -51.125671
 C         -57.387608     -158.829254      -50.583138
 C         -56.450031     -157.699219      -50.739109
 H         -58.885010     -155.695099      -52.372955
 H         -57.628490     -156.442398      -53.402435
 H         -58.972412     -159.876663      -51.603462
 H         -57.534725     -159.492554      -52.613461
 H         -57.748558     -156.151978      -50.126328
 H         -56.613426     -155.540207      -51.278111
 H         -56.891796     -159.839828      -50.271580
 H         -58.000648     -158.544327      -49.623714
 H         -55.814419     -157.497665      -49.789192
 H         -55.628426     -157.919403      -51.396046
