20
 generated by VMD
 C         -68.823051     -185.862640      -66.156075
 N         -68.617645     -186.134933      -67.269699
 H         -69.256920     -182.949997      -63.476551
 H         -68.830299     -185.601807      -65.061623
 C         -69.355499     -183.766891      -62.747208
 C         -70.404404     -184.816910      -62.700504
 C         -68.031044     -183.867767      -62.100697
 C         -70.033165     -185.717682      -61.502262
 C         -67.718796     -185.158493      -61.317745
 C         -68.615288     -186.305923      -61.560123
 H         -70.214439     -185.338684      -63.627056
 H         -71.394981     -184.331558      -62.706818
 H         -67.233643     -183.824570      -62.847939
 H         -67.883072     -183.059753      -61.404430
 H         -70.733566     -186.608215      -61.476887
 H         -70.262856     -185.046906      -60.657356
 H         -67.653679     -184.834824      -60.195393
 H         -66.660240     -185.505630      -61.492764
 H         -68.424828     -186.761948      -62.475750
 H         -68.428955     -186.952896      -60.752804
