20
 generated by VMD
 C         -31.122622      -78.400970      -26.175037
 N         -31.508884      -77.585190      -25.522537
 H         -29.185072      -77.341614      -22.926945
 H         -30.841177      -78.992683      -27.125992
 C         -28.726652      -78.212013      -22.417242
 C         -27.355658      -78.605034      -23.020033
 C         -29.552002      -79.485153      -22.049435
 C         -26.605331      -79.554657      -22.165237
 C         -28.707773      -80.560478      -21.279305
 C         -27.463707      -80.855934      -22.117628
 H         -26.809206      -77.664780      -23.195171
 H         -27.449085      -78.923203      -24.121569
 H         -30.373926      -79.152130      -21.543133
 H         -29.912060      -79.853249      -23.046268
 H         -26.440983      -79.047935      -21.190180
 H         -25.665796      -79.959084      -22.577789
 H         -29.316366      -81.445816      -21.225960
 H         -28.502863      -80.207916      -20.333817
 H         -26.895168      -81.645370      -21.565296
 H         -27.658611      -81.220070      -23.137220
