20
 generated by VMD
 C         -28.236574      -87.102173      -27.117546
 N         -27.634567      -86.981010      -26.128197
 H         -31.129421      -88.410881      -25.353491
 H         -28.748854      -87.113335      -28.002985
 C         -32.137569      -88.167656      -25.688234
 C         -33.315182      -88.485916      -24.867088
 C         -32.349655      -88.377144      -27.114195
 C         -34.510845      -87.706589      -25.312933
 C         -33.541119      -87.469963      -27.577997
 C         -34.819668      -87.875008      -26.823469
 H         -33.278378      -88.252136      -23.827433
 H         -33.431602      -89.566551      -24.983467
 H         -31.492092      -88.145157      -27.691347
 H         -32.732121      -89.363213      -27.366873
 H         -34.458210      -86.606361      -25.152998
 H         -35.385654      -87.998970      -24.778114
 H         -33.649685      -87.664841      -28.678036
 H         -33.100689      -86.527702      -27.403200
 H         -35.660793      -87.237534      -27.115747
 H         -35.118584      -88.895874      -27.045168
