20
 generated by VMD
 C         -23.408707      -53.014774      -12.837584
 N         -23.021927      -52.595005      -13.776065
 H         -20.432564      -55.197041      -13.743148
 H         -23.857798      -53.088154      -11.668772
 C         -19.477968      -54.648521      -13.981255
 C         -19.061140      -53.218117      -14.047883
 C         -18.295376      -55.609955      -14.081711
 C         -17.681248      -52.913647      -13.393106
 C         -17.257975      -55.289761      -13.007215
 C         -16.571823      -54.013691      -13.346350
 H         -19.711058      -52.581432      -13.514165
 H         -19.059174      -52.972111      -15.061493
 H         -18.689695      -56.656731      -13.945676
 H         -17.891788      -55.508507      -15.064053
 H         -17.874493      -52.725204      -12.337594
 H         -17.287010      -51.972672      -13.825583
 H         -16.449728      -56.096497      -13.104130
 H         -17.636919      -55.332851      -12.017823
 H         -15.785156      -53.850262      -12.569553
 H         -16.103600      -54.111916      -14.364319
