20
 generated by VMD
 C         -33.698677      -96.210930      -25.223303
 N         -33.004944      -97.181175      -25.219133
 H         -34.854725      -93.282143      -27.457701
 H         -34.340702      -95.379997      -25.171276
 C         -34.847534      -93.516212      -28.494825
 C         -36.035088      -94.088249      -29.188396
 C         -33.540596      -93.375618      -29.194544
 C         -36.224316      -93.134865      -30.469328
 C         -33.677574      -92.557549      -30.498005
 C         -34.949528      -93.104111      -31.319851
 H         -36.874725      -93.953537      -28.565948
 H         -35.945847      -95.158508      -29.420258
 H         -32.882553      -92.839096      -28.571861
 H         -33.070595      -94.362350      -29.308390
 H         -36.760876      -92.220314      -30.189938
 H         -36.971825      -93.629227      -31.069351
 H         -32.738609      -92.645638      -31.014099
 H         -33.827778      -91.471123      -30.280931
 H         -35.141670      -92.392998      -32.301361
 H         -34.784470      -94.112617      -31.679691
