20
 generated by VMD
 C         -68.380424     -185.281937      -66.139969
 N         -69.375717     -185.803177      -66.501213
 H         -69.454514     -183.429672      -64.061523
 H         -67.478958     -184.815018      -65.896851
 C         -69.230377     -183.838882      -63.066677
 C         -70.218414     -184.600479      -62.284431
 C         -67.866402     -183.718933      -62.414356
 C         -69.576820     -185.956650      -61.928360
 C         -67.779579     -184.413635      -61.056526
 C         -68.338097     -185.826721      -61.119381
 H         -71.092781     -184.844879      -62.933292
 H         -70.539749     -184.159409      -61.377857
 H         -67.194580     -184.132919      -63.250431
 H         -67.781952     -182.629745      -62.253448
 H         -69.236534     -186.511185      -62.811897
 H         -70.269722     -186.692352      -61.540169
 H         -68.428986     -183.847870      -60.384369
 H         -66.795479     -184.416702      -60.469913
 H         -67.702095     -186.497498      -61.517532
 H         -68.342773     -186.278397      -60.174496
