20
 generated by VMD
 C         -19.361712      -60.549324      -17.914375
 N         -20.011154      -59.577995      -17.841419
 H         -22.833826      -59.871773      -16.216558
 H         -18.963865      -61.557201      -17.715420
 C         -23.161667      -60.947964      -16.099037
 C         -23.410727      -61.666821      -17.323769
 C         -23.446239      -61.694042      -14.811549
 C         -22.619171      -62.916870      -17.329359
 C         -23.138268      -63.219845      -14.828773
 C         -23.156662      -63.872585      -16.265062
 H         -22.972107      -61.048931      -18.143459
 H         -24.534126      -61.797977      -17.264875
 H         -22.842339      -61.237686      -14.060246
 H         -24.479929      -61.508095      -14.592466
 H         -21.604029      -62.666821      -17.012932
 H         -22.503778      -63.409382      -18.270758
 H         -23.821699      -63.763180      -14.148273
 H         -22.134399      -63.368259      -14.414887
 H         -22.554733      -64.838387      -16.290686
 H         -24.225189      -64.096138      -16.553215
