20
 generated by VMD
 C         -69.867676     -197.067215      -65.734718
 N         -68.898399     -196.504944      -65.552536
 H         -71.638649     -194.022064      -65.007607
 H         -70.792816     -197.675049      -65.939919
 C         -72.412865     -193.809692      -65.777283
 C         -72.601219     -192.420380      -66.150772
 C         -72.983360     -194.971664      -66.631439
 C         -73.724312     -192.057236      -67.144173
 C         -74.210365     -194.571503      -67.390625
 C         -74.122490     -193.178192      -68.054504
 H         -71.732666     -191.987381      -66.566284
 H         -72.682755     -191.796997      -65.227722
 H         -72.090904     -195.229782      -67.305305
 H         -73.248093     -195.832397      -65.870003
 H         -73.435432     -191.180069      -67.718025
 H         -74.603973     -191.753204      -66.613220
 H         -75.043327     -194.632065      -66.665947
 H         -74.385910     -195.317368      -68.153435
 H         -73.364754     -193.239975      -68.807716
 H         -74.981346     -192.863434      -68.609909
