20
 generated by VMD
 C         -38.851383     -111.872490      -35.884281
 N         -38.470482     -111.349739      -36.841091
 H         -40.911720     -115.018875      -34.848343
 H         -39.058498     -112.635811      -35.093914
 C         -41.496536     -114.356255      -35.371658
 C         -41.759098     -114.382858      -36.795231
 C         -42.180275     -113.314568      -34.604633
 C         -43.301361     -114.391258      -37.021168
 C         -43.695671     -113.299118      -34.893341
 C         -43.979618     -113.277931      -36.351711
 H         -41.260498     -115.102257      -37.362637
 H         -41.444107     -113.463348      -37.309685
 H         -41.905594     -113.287033      -33.542824
 H         -41.921154     -112.300041      -34.920830
 H         -43.668579     -115.335823      -36.758244
 H         -43.366833     -114.345673      -38.108139
 H         -44.239223     -112.402740      -34.527420
 H         -44.267422     -114.100380      -34.358746
 H         -45.109776     -113.185387      -36.554314
 H         -43.637508     -112.301888      -36.578728
