20
 generated by VMD
 C         -18.318483      -48.751781       -7.168467
 N         -19.040529      -49.613262       -7.114958
 H         -16.132898      -47.582279      -10.063179
 H         -16.323975      -49.009636      -11.160303
 C         -16.277197      -47.883961      -11.136945
 C         -15.146290      -47.405212      -12.009459
 C         -17.628893      -47.369892      -11.617451
 C         -15.352587      -47.599861      -13.507501
 C         -17.949064      -47.584461      -13.114659
 C         -16.739880      -47.076630      -13.937066
 H         -14.251045      -48.053009      -11.810413
 H         -14.968409      -46.330536      -11.804085
 H         -18.398790      -47.851871      -11.055975
 H         -17.636589      -46.312855      -11.412914
 H         -15.132005      -48.654892      -13.719954
 H         -14.595849      -47.069542      -14.076548
 H         -18.952137      -47.099380      -13.216508
 H         -18.109726      -48.602688      -13.323097
 H         -16.898581      -47.279362      -15.029759
 H         -16.698645      -45.912678      -13.844849
