20
 generated by VMD
 C         -74.972946     -201.750107      -66.608932
 N         -74.836021     -201.492737      -65.475235
 H         -76.342247     -199.125107      -68.976143
 H         -74.928131     -201.919632      -67.726524
 C         -75.244453     -198.876038      -69.009674
 C         -74.981232     -197.532150      -68.330460
 C         -74.270340     -199.530594      -69.882881
 C         -73.495293     -197.554199      -67.940086
 C         -73.292191     -198.456345      -70.364914
 C         -72.578094     -197.722198      -69.229973
 H         -75.649445     -197.399292      -67.553993
 H         -75.055702     -196.725021      -69.129745
 H         -73.808540     -200.368301      -69.376762
 H         -74.756508     -200.149765      -70.718399
 H         -73.269318     -198.382523      -67.261757
 H         -73.079720     -196.761459      -67.314743
 H         -73.750328     -197.703415      -71.036766
 H         -72.562096     -198.905899      -70.971924
 H         -71.710281     -198.234131      -68.870552
 H         -72.322945     -196.815750      -69.802200
