20
 generated by VMD
 C         -47.999741     -140.003204      -45.948280
 N         -46.925098     -139.778366      -45.719570
 H         -51.233135     -138.448761      -45.311024
 H         -48.914314     -140.461853      -46.172314
 C         -51.956264     -139.221222      -45.510544
 C         -52.078869     -139.415955      -47.067059
 C         -53.114254     -139.153290      -44.659733
 C         -53.129128     -140.509735      -47.302349
 C         -54.233311     -140.248138      -45.060547
 C         -54.516399     -140.304886      -46.653259
 H         -51.106491     -139.712677      -47.490040
 H         -52.287975     -138.460938      -47.596558
 H         -52.825493     -139.330658      -43.616684
 H         -53.566227     -138.119629      -44.876064
 H         -52.734543     -141.473328      -47.125843
 H         -53.385220     -140.551315      -48.337555
 H         -55.099812     -140.137787      -44.256031
 H         -53.905304     -141.272003      -44.826988
 H         -55.259254     -141.142868      -46.706722
 H         -54.909809     -139.298584      -46.978104
