20
 generated by VMD
 C         -27.911341      -82.716553      -27.270573
 N         -27.177139      -83.406891      -26.656475
 H         -31.254154      -84.287979      -26.327131
 H         -28.510691      -82.191002      -27.903826
 C         -31.847145      -84.935059      -25.788145
 C         -31.390898      -84.968208      -24.414898
 C         -32.289097      -86.225365      -26.337574
 C         -32.497398      -85.587402      -23.446922
 C         -33.159313      -87.074135      -25.399830
 C         -32.829273      -87.071251      -23.925444
 H         -31.393225      -83.927666      -24.223253
 H         -30.379078      -85.240753      -24.126923
 H         -32.984333      -85.891693      -27.154526
 H         -31.516634      -86.830231      -26.724676
 H         -33.433411      -85.117203      -23.551273
 H         -32.043213      -85.522926      -22.386930
 H         -33.130684      -88.187859      -25.838949
 H         -34.189163      -86.710915      -25.606316
 H         -33.400478      -87.476044      -23.105886
 H         -31.808352      -87.507103      -23.807247
