20
 generated by VMD
 C         -68.097466     -185.175232      -67.785110
 N         -67.587120     -185.818176      -66.966232
 H         -69.603142     -185.141968      -64.456200
 H         -68.560097     -184.559082      -68.608665
 C         -69.671181     -185.697174      -63.478992
 C         -70.843346     -185.318695      -62.669205
 C         -68.993629     -187.015167      -63.191303
 C         -70.454597     -185.319519      -61.179638
 C         -68.485947     -186.899445      -61.715046
 C         -69.562943     -186.490311      -60.679176
 H         -71.598473     -186.116760      -62.645008
 H         -71.196869     -184.338104      -62.885311
 H         -69.668442     -187.843521      -63.241959
 H         -68.196846     -186.962433      -63.867580
 H         -71.449425     -185.493744      -60.639374
 H         -69.991264     -184.404617      -60.827244
 H         -67.792587     -186.085739      -61.685631
 H         -68.082344     -187.857361      -61.494617
 H         -70.215950     -187.227356      -60.683399
 H         -69.218925     -186.150055      -59.730309
