20
 generated by VMD
 C         -69.040054     -180.281616      -59.406666
 N         -68.509315     -180.715347      -60.330547
 H         -67.481094     -177.189041      -59.764645
 H         -69.441147     -179.875610      -58.528065
 C         -66.419281     -176.781784      -59.852009
 C         -66.036285     -176.529510      -61.392300
 C         -65.264503     -177.072174      -58.920269
 C         -64.788956     -175.576630      -61.619499
 C         -64.161201     -176.029327      -59.169483
 C         -63.746243     -175.970642      -60.603756
 H         -66.910217     -176.058212      -61.888966
 H         -65.965530     -177.486252      -61.818123
 H         -65.580894     -177.232697      -57.826710
 H         -64.926178     -177.992599      -59.314751
 H         -65.140778     -174.469025      -61.234360
 H         -64.520576     -175.578537      -62.680416
 H         -63.300869     -176.251862      -58.560883
 H         -64.506500     -174.990692      -58.993797
 H         -62.891342     -175.214081      -60.578064
 H         -63.350300     -176.870331      -60.926979
