20
 generated by VMD
 C         -10.573499      -35.492203       -8.398897
 N         -10.323286      -36.572308       -8.582985
 H         -13.355533      -37.287041       -7.022125
 H         -14.621018      -37.939224       -5.937688
 C         -14.009388      -38.104916       -6.891765
 C         -13.098653      -39.326126       -6.983986
 C         -15.059166      -38.069885       -8.036115
 C         -13.902822      -40.578419       -7.004247
 C         -15.808313      -39.421806       -8.113500
 C         -14.873941      -40.640095       -8.135729
 H         -12.354273      -39.273624       -6.173390
 H         -12.468631      -39.309650       -7.894507
 H         -15.784963      -37.276138       -7.889511
 H         -14.683957      -37.853157       -9.004699
 H         -14.421992      -40.678600       -6.095035
 H         -13.271616      -41.464256       -7.086447
 H         -16.499237      -39.439693       -8.959600
 H         -16.469646      -39.451103       -7.220722
 H         -15.458449      -41.534821       -7.966858
 H         -14.367184      -40.726002       -9.081668
