20
 generated by VMD
 C         -66.305260     -189.639435      -66.735786
 N         -66.364197     -189.177383      -67.786575
 H         -69.962410     -190.051285      -65.289490
 H         -66.315926     -190.280731      -65.821388
 C         -70.550377     -189.788300      -64.383820
 C         -71.843094     -190.669403      -64.082985
 C         -70.489586     -188.468719      -63.687122
 C         -73.062141     -189.853821      -63.819195
 C         -71.826393     -187.746063      -63.780361
 C         -72.893799     -188.496964      -63.121181
 H         -71.695114     -191.179413      -63.136463
 H         -71.981750     -191.280838      -64.936844
 H         -70.228485     -188.574081      -62.644749
 H         -69.759171     -187.790146      -64.105995
 H         -73.727699     -190.418304      -63.211018
 H         -73.660973     -189.776047      -64.772751
 H         -71.946846     -187.523407      -64.891075
 H         -71.903366     -186.758820      -63.356133
 H         -72.708382     -188.628723      -62.004314
 H         -73.725922     -187.909424      -63.353348
