20
 generated by VMD
 C         -59.996967     -152.467941      -50.995182
 N         -60.859211     -152.948929      -51.512001
 H         -56.805763     -152.747131      -49.139900
 H         -59.052750     -152.039810      -50.612804
 C         -56.051506     -152.090805      -49.560184
 C         -54.662987     -152.726273      -49.542515
 C         -56.161709     -150.645203      -49.663265
 C         -53.802715     -152.393539      -50.777958
 C         -55.319790     -150.245682      -50.901508
 C         -53.862988     -150.862000      -51.163742
 H         -54.788197     -153.792664      -49.531609
 H         -54.270588     -152.350525      -48.613117
 H         -57.226162     -150.334747      -49.790691
 H         -55.805267     -150.088013      -48.777321
 H         -54.354755     -152.852081      -51.615211
 H         -52.780407     -152.705566      -50.673676
 H         -55.284275     -149.192657      -50.820492
 H         -56.005844     -150.404373      -51.779186
 H         -53.488628     -150.535858      -52.096676
 H         -53.361931     -150.310852      -50.306656
