20
 generated by VMD
 C         -78.406235     -209.800461      -77.274521
 N         -79.015144     -208.905197      -76.916451
 H         -78.502029     -210.432953      -73.524742
 H         -77.787140     -210.575302      -77.694283
 C         -78.555229     -211.230301      -72.832954
 C         -77.443924     -211.666901      -71.946167
 C         -79.794525     -212.101654      -72.910759
 C         -78.158844     -211.898712      -70.494499
 C         -80.324211     -212.636063      -71.593025
 C         -79.161713     -213.128922      -70.658676
 H         -76.620483     -210.905838      -71.813179
 H         -76.898041     -212.514359      -72.388512
 H         -80.501266     -211.470795      -73.402206
 H         -79.540047     -212.961029      -73.645416
 H         -78.790573     -211.076614      -70.029587
 H         -77.349213     -212.030441      -69.750885
 H         -81.164619     -213.426407      -71.707314
 H         -80.666183     -211.769226      -71.023964
 H         -79.542885     -213.228516      -69.606331
 H         -78.711266     -214.041275      -71.055527
