20
 generated by VMD
 C         -71.174210     -198.918182      -64.491272
 N         -70.363739     -198.597214      -65.265633
 H         -72.481049     -196.582260      -66.407700
 H         -71.914963     -199.368057      -63.801426
 C         -73.020729     -195.932816      -67.074867
 C         -73.265137     -194.548325      -66.621094
 C         -73.575211     -196.462387      -68.312424
 C         -73.311020     -193.575378      -67.880707
 C         -74.781212     -195.529587      -68.744301
 C         -74.303566     -194.077820      -68.973183
 H         -72.437325     -194.193573      -65.935249
 H         -74.141083     -194.586960      -65.934242
 H         -72.753151     -196.533661      -69.079445
 H         -73.672539     -197.538544      -68.188011
 H         -72.309547     -193.432663      -68.327431
 H         -73.587708     -192.584869      -67.476112
 H         -75.479332     -195.669327      -67.875465
 H         -75.434570     -195.801605      -69.613052
 H         -73.743889     -193.971344      -69.967850
 H         -75.144592     -193.446899      -68.943909
