20
 generated by VMD
 C         -22.849192      -52.396503      -11.954494
 N         -22.892956      -52.539471      -10.854120
 H         -19.956087      -52.660534      -13.858805
 H         -22.389633      -52.057552      -13.025915
 C         -18.886717      -52.745476      -13.905809
 C         -17.995279      -51.876232      -14.783416
 C         -18.355862      -53.609364      -12.810698
 C         -16.577078      -52.270988      -14.589360
 C         -17.060318      -53.051270      -12.242840
 C         -16.163107      -52.137390      -13.136038
 H         -18.035307      -50.783100      -14.491394
 H         -18.324915      -52.001350      -15.791644
 H         -19.094372      -53.778217      -12.080771
 H         -18.117920      -54.584827      -13.252995
 H         -15.873573      -51.607380      -15.071973
 H         -16.346863      -53.303387      -14.864459
 H         -16.415821      -53.938534      -11.994802
 H         -17.366610      -52.478733      -11.366463
 H         -16.181526      -51.081558      -12.754018
 H         -15.109806      -52.512318      -13.044741
