20
 generated by VMD
 C         -56.143078     -150.165665      -47.230087
 N         -57.109039     -150.243454      -46.636333
 H         -53.326115     -147.842407      -47.492081
 H         -55.301315     -150.023132      -47.865562
 C         -53.788849     -147.641800      -48.463837
 C         -53.135296     -148.167908      -49.740723
 C         -54.574261     -146.343384      -48.455326
 C         -54.173634     -148.173447      -50.851089
 C         -55.459045     -146.347153      -49.809971
 C         -54.569729     -146.683624      -51.094357
 H         -52.748299     -149.075333      -49.537483
 H         -52.259872     -147.454956      -49.887669
 H         -55.231785     -146.107361      -47.606564
 H         -53.810654     -145.440811      -48.567265
 H         -55.068230     -148.730698      -50.570316
 H         -53.734390     -148.749100      -51.660172
 H         -55.884499     -145.307739      -49.927536
 H         -56.239414     -147.157333      -49.843208
 H         -55.219639     -146.699570      -51.951942
 H         -53.682014     -146.074219      -51.330620
