20
 generated by VMD
 C         -40.727623     -100.141724      -29.999521
 N         -40.678421     -100.319824      -28.862827
 H         -37.330128     -100.325722      -30.570778
 H         -40.926414     -100.028618      -31.111185
 C         -36.380501      -99.705162      -30.747606
 C         -35.970299      -99.586121      -32.240311
 C         -35.366615      -99.677147      -29.725887
 C         -34.938686      -98.503929      -32.558105
 C         -34.370819      -98.628166      -30.019577
 C         -33.865395      -98.560974      -31.459263
 H         -36.783230      -99.542641      -32.910259
 H         -35.475834     -100.563988      -32.524899
 H         -35.751808      -99.659401      -28.758448
 H         -34.830456     -100.660515      -29.811350
 H         -35.400364      -97.494888      -32.649075
 H         -34.544647      -98.788078      -33.488178
 H         -33.570007      -98.578003      -29.286221
 H         -34.828007      -97.597382      -29.769934
 H         -33.288071      -97.663834      -31.711086
 H         -33.148205      -99.351578      -31.652035
