20
 generated by VMD
 C         -43.490349     -121.173805      -36.081764
 N         -43.571117     -120.535149      -35.099983
 H         -44.906464     -122.375587      -39.608475
 H         -43.176327     -121.659653      -36.950180
 C         -44.752075     -121.261909      -39.431297
 C         -43.392513     -120.753021      -39.728130
 C         -45.849323     -120.450218      -38.828133
 C         -43.366489     -119.265488      -40.175320
 C         -45.828930     -119.001076      -39.366096
 C         -44.357185     -118.455795      -39.442356
 H         -42.706978     -121.385643      -40.310120
 H         -42.876778     -120.803017      -38.837322
 H         -46.851223     -120.907379      -39.164253
 H         -45.864475     -120.470528      -37.746742
 H         -43.663509     -119.371918      -41.266296
 H         -42.326721     -118.733986      -40.258526
 H         -46.434055     -118.160202      -38.759827
 H         -46.406071     -119.110733      -40.427593
 H         -44.396317     -117.487648      -39.907391
 H         -43.896896     -118.358917      -38.498146
