20
 generated by VMD
 C         -79.954353     -205.440536      -71.591713
 N         -79.938042     -206.588684      -71.560043
 H         -77.259628     -203.508331      -71.164986
 H         -79.817841     -204.362289      -71.873634
 C         -76.260681     -203.745514      -70.748154
 C         -75.258995     -202.683731      -70.493164
 C         -76.125397     -205.139374      -70.065895
 C         -73.880852     -203.166000      -70.311653
 C         -75.080475     -205.090469      -69.107475
 C         -73.816040     -204.636627      -69.806847
 H         -75.608543     -202.229813      -69.497482
 H         -75.301544     -201.889435      -71.227737
 H         -77.046738     -205.233093      -69.647270
 H         -75.875725     -205.958069      -70.664726
 H         -73.279762     -202.623062      -69.575226
 H         -73.275047     -203.165848      -71.261673
 H         -74.884911     -206.092712      -68.667580
 H         -75.284325     -204.378281      -68.268196
 H         -73.112534     -204.714233      -68.914375
 H         -73.526787     -205.433228      -70.500443
