20
 generated by VMD
 C         -33.664776      -96.060326      -25.338675
 N         -33.790161      -97.009750      -26.004581
 H         -34.793964      -94.287415      -27.470295
 H         -33.584042      -95.215637      -24.707302
 C         -34.770218      -93.965431      -28.476904
 C         -36.093670      -94.314507      -29.212770
 C         -33.470272      -93.583847      -29.096140
 C         -36.180588      -93.564720      -30.517193
 C         -33.758305      -92.746292      -30.313421
 C         -34.830620      -93.313805      -31.218966
 H         -37.031609      -94.136566      -28.661102
 H         -36.017185      -95.455910      -29.333488
 H         -32.899406      -93.003586      -28.297579
 H         -32.755489      -94.432724      -29.338068
 H         -36.547226      -92.596855      -30.198179
 H         -36.932011      -94.013412      -31.290092
 H         -32.832424      -92.678177      -30.809832
 H         -34.149628      -91.703026      -30.144314
 H         -34.960167      -92.615677      -32.024849
 H         -34.539959      -94.446182      -31.705647
