20
 generated by VMD
 C         -60.481384     -169.726059      -55.208031
 N         -59.392910     -169.448486      -55.359852
 H         -63.033012     -170.519012      -56.588509
 H         -61.527657     -169.922806      -54.981236
 C         -63.374485     -169.601349      -57.000065
 C         -62.534668     -169.038147      -58.184155
 C         -63.945522     -168.676498      -55.957867
 C         -63.239258     -167.839172      -58.738087
 C         -64.539291     -167.457214      -56.662506
 C         -63.510063     -166.816269      -57.616848
 H         -62.427490     -169.791138      -58.879604
 H         -61.480530     -168.815323      -57.687363
 H         -64.718468     -169.109390      -55.385113
 H         -63.204319     -168.325638      -55.264706
 H         -64.227249     -167.922775      -59.198074
 H         -62.559528     -167.448761      -59.540390
 H         -64.871498     -166.783417      -55.868313
 H         -65.417107     -167.791550      -57.150539
 H         -63.830669     -165.863220      -58.037766
 H         -62.605675     -166.578018      -56.998543
