20
 generated by VMD
 C         -41.015278     -104.317955      -36.280418
 N         -41.925926     -105.014786      -36.386948
 H         -38.226696     -104.555115      -33.698406
 H         -39.988525     -103.912735      -36.160816
 C         -38.329300     -105.361862      -33.052929
 C         -37.040157     -105.703217      -32.217587
 C         -39.400288     -106.427010      -33.360878
 C         -37.344437     -106.662888      -31.072416
 C         -39.466709     -107.467163      -32.288334
 C         -38.062542     -107.893883      -31.668091
 H         -36.616653     -104.743279      -31.920425
 H         -36.228458     -106.045708      -32.871140
 H         -40.393661     -105.863495      -33.465614
 H         -39.300209     -107.010017      -34.247948
 H         -37.823307     -106.201950      -30.124111
 H         -36.370491     -107.064636      -30.664495
 H         -39.828587     -108.444443      -32.657814
 H         -39.983677     -107.014420      -31.496468
 H         -38.179115     -108.706993      -31.031448
 H         -37.329960     -108.165642      -32.515488
