20
 generated by VMD
 C         -41.005886     -103.735985      -35.811573
 N         -41.591125     -104.726723      -35.761200
 H         -38.880112     -104.070099      -33.496620
 H         -40.209888     -102.947533      -35.808189
 C         -38.450531     -104.870010      -32.947067
 C         -37.017197     -104.956741      -32.551216
 C         -39.211708     -106.154861      -33.067341
 C         -36.859226     -105.922821      -31.411156
 C         -39.194618     -107.007301      -31.677717
 C         -37.651630     -107.250816      -31.497515
 H         -36.559448     -103.983734      -32.251091
 H         -36.384312     -105.362869      -33.362000
 H         -40.303089     -105.800117      -33.238770
 H         -38.878517     -106.720047      -33.890545
 H         -37.208462     -105.522812      -30.453606
 H         -35.761566     -106.014641      -31.443316
 H         -39.711494     -108.027924      -31.627234
 H         -39.507725     -106.484428      -30.758009
 H         -37.493534     -107.799164      -30.606668
 H         -37.200272     -107.876320      -32.344223
