20
 generated by VMD
 C         -49.474659     -132.125504      -46.406155
 N         -50.273636     -132.179123      -47.220261
 H         -47.693913     -134.059998      -44.536518
 H         -48.945072     -132.039841      -45.475063
 C         -48.536797     -134.281372      -43.857464
 C         -49.058872     -135.651260      -43.899025
 C         -49.121498     -133.196899      -42.974468
 C         -49.731007     -136.077301      -42.584938
 C         -49.836903     -133.762527      -41.720913
 C         -50.723671     -134.937134      -42.105312
 H         -48.099449     -136.240707      -43.915695
 H         -49.554607     -135.868896      -44.809750
 H         -48.296452     -132.416260      -42.627052
 H         -49.882034     -132.617447      -43.551205
 H         -48.989876     -136.310776      -41.738102
 H         -50.372135     -137.011902      -42.800312
 H         -50.400551     -133.052963      -41.184708
 H         -49.073868     -134.041840      -41.013706
 H         -51.313049     -135.308716      -41.245464
 H         -51.588627     -134.662155      -42.737595
