20
 generated by VMD
 C         -42.062138     -101.544205      -33.218212
 N         -41.106644     -101.679573      -33.879616
 H         -38.826042     -103.550346      -32.800415
 H         -43.040764     -101.364929      -32.637665
 C         -38.013630     -103.558128      -32.107803
 C         -36.751499     -103.403679      -33.084137
 C         -37.650238     -104.055229      -30.764719
 C         -35.498302     -102.747620      -32.426594
 C         -36.605621     -103.191856      -30.134823
 C         -35.236759     -103.158630      -30.944790
 H         -37.156860     -102.769569      -33.939934
 H         -36.619083     -104.400795      -33.501595
 H         -38.612766     -104.064301      -30.146482
 H         -37.365128     -105.049850      -30.964256
 H         -35.635277     -101.668320      -32.334095
 H         -34.622547     -102.893707      -33.048775
 H         -36.442123     -103.575005      -29.187223
 H         -36.959785     -102.113823      -29.994656
 H         -34.499687     -102.458931      -30.571196
 H         -34.844456     -104.229980      -30.820934
