20
 generated by VMD
 C         -50.317204     -129.467010      -43.528511
 N         -50.858707     -129.853409      -44.431866
 H         -49.020863     -127.878952      -40.863457
 H         -49.966091     -129.106583      -42.568516
 C         -48.094460     -128.269302      -41.163506
 C         -47.803055     -129.729965      -40.953537
 C         -47.024700     -127.103935      -40.887280
 C         -46.462524     -130.041168      -41.675827
 C         -45.610508     -127.597687      -41.320511
 C         -45.319637     -129.072861      -41.159748
 H         -48.473957     -130.465805      -41.520599
 H         -47.819233     -129.891998      -39.910183
 H         -47.236233     -126.166191      -41.295616
 H         -46.986183     -127.020027      -39.713539
 H         -46.531818     -129.826263      -42.768047
 H         -46.145309     -131.064911      -41.403500
 H         -44.851028     -126.998558      -40.847591
 H         -45.583363     -127.322571      -42.308544
 H         -44.336220     -129.240524      -41.550182
 H         -45.081268     -129.442520      -40.124607
