20
 generated by VMD
 C         -49.815865     -127.727707      -39.129108
 N         -49.462540     -126.671295      -38.828739
 H         -47.235962     -125.802933      -40.454460
 H         -50.369518     -128.669067      -39.249039
 C         -46.272770     -125.279533      -40.727718
 C         -44.925968     -125.927574      -40.528503
 C         -46.529324     -123.864311      -41.262661
 C         -43.740429     -124.904663      -40.892242
 C         -45.169880     -123.154152      -41.460449
 C         -44.075077     -123.463531      -40.554592
 H         -44.884430     -126.774651      -41.274174
 H         -44.685440     -126.380440      -39.468170
 H         -47.160713     -123.807121      -42.110950
 H         -47.262924     -123.358582      -40.439003
 H         -43.463707     -125.062706      -41.975704
 H         -42.799294     -125.245552      -40.382988
 H         -45.423096     -122.057579      -41.434570
 H         -44.910549     -123.300148      -42.522549
 H         -43.168198     -122.962051      -40.908237
 H         -44.227852     -123.218140      -39.519127
