20
 generated by VMD
 C         -59.748455     -157.474579      -56.476055
 N         -60.671398     -157.246948      -57.155910
 H         -59.781574     -157.214493      -53.198048
 H         -58.895252     -157.804245      -55.890442
 C         -59.225357     -157.900940      -52.558319
 C         -57.979832     -157.328659      -52.001694
 C         -59.409035     -159.400635      -52.762787
 C         -57.387985     -158.241623      -50.795235
 C         -58.942356     -160.193787      -51.569687
 C         -57.468121     -159.779861      -51.162960
 H         -58.196735     -156.208267      -51.579296
 H         -57.157021     -157.255951      -52.734734
 H         -60.402573     -159.388779      -53.070660
 H         -58.786945     -159.778748      -53.601601
 H         -57.819862     -158.102066      -49.791496
 H         -56.223183     -158.020004      -50.687180
 H         -59.103180     -161.311707      -51.850040
 H         -59.606762     -159.948410      -50.686241
 H         -57.111202     -160.450424      -50.446648
 H         -56.908531     -159.912140      -52.195423
