20
 generated by VMD
 C         -19.936766      -50.056835       -9.437142
 N         -19.667116      -51.210220       -9.647570
 H         -16.666637      -48.195061       -9.937419
 H         -19.894199      -49.198296       -8.976573
 C         -16.551916      -48.200062      -11.059012
 C         -15.580209      -49.130005      -11.719019
 C         -17.458328      -47.434643      -11.917166
 C         -16.332235      -49.934101      -12.794826
 C         -17.790533      -48.113941      -13.258728
 C         -16.757750      -49.054577      -13.908005
 H         -15.086825      -49.789867      -10.955762
 H         -14.885042      -48.572002      -12.318428
 H         -18.424271      -47.282864      -11.437310
 H         -17.068897      -46.431431      -12.133667
 H         -17.256859      -50.338623      -12.308858
 H         -15.671829      -50.713593      -13.207801
 H         -18.042452      -47.286663      -14.019098
 H         -18.701941      -48.721737      -13.023787
 H         -17.212326      -49.692516      -14.639142
 H         -16.012211      -48.513794      -14.451031
