20
 generated by VMD
 C         -67.822479     -185.799652      -67.310028
 N         -68.768532     -186.378479      -67.706673
 H         -68.646194     -187.928085      -64.715813
 H         -66.988060     -185.307114      -66.929886
 C         -69.296143     -187.654175      -63.943523
 C         -68.803291     -186.873077      -62.717636
 C         -70.743927     -188.124542      -64.007439
 C         -69.580093     -187.072235      -61.401466
 C         -71.287933     -188.391449      -62.596252
 C         -71.091095     -187.211868      -61.683430
 H         -68.928741     -185.828232      -63.043186
 H         -67.673683     -187.084610      -62.653992
 H         -71.470657     -187.476700      -64.508568
 H         -70.822716     -188.945786      -64.639519
 H         -69.399895     -186.296539      -60.614304
 H         -69.341812     -188.014496      -60.981289
 H         -70.958488     -189.397964      -62.108814
 H         -72.398293     -188.596603      -62.787228
 H         -71.327896     -186.229782      -61.908905
 H         -71.818718     -187.369232      -60.848984
