20
 generated by VMD
 C         -20.720663      -57.372829      -16.827152
 N         -20.516497      -56.450363      -16.202541
 H         -22.364067      -59.816669      -17.808084
 H         -20.578882      -58.337456      -17.318487
 C         -22.051645      -60.187183      -16.894402
 C         -22.773916      -59.703686      -15.553203
 C         -21.566290      -61.559422      -16.836573
 C         -22.028053      -60.034431      -14.346342
 C         -20.928129      -61.907776      -15.478354
 C         -21.811779      -61.512306      -14.362548
 H         -23.778444      -60.154278      -15.447833
 H         -22.903437      -58.670143      -15.602532
 H         -22.489103      -62.200363      -16.943552
 H         -21.036291      -61.854244      -17.748346
 H         -22.700125      -59.858067      -13.456835
 H         -21.066931      -59.524731      -14.329050
 H         -20.131306      -61.250183      -15.492979
 H         -20.557299      -62.908463      -15.459777
 H         -22.813774      -62.034653      -14.493712
 H         -21.508978      -61.904091      -13.402557
