20
 generated by VMD
 C         -28.432583      -85.733940      -26.828228
 N         -27.391535      -85.742828      -26.360889
 H         -31.232521      -85.293182      -25.674332
 H         -29.377110      -85.597130      -27.293844
 C         -31.882195      -86.096931      -25.655905
 C         -32.526424      -86.476158      -24.366898
 C         -31.993725      -86.917091      -26.912134
 C         -33.915722      -87.191795      -24.569832
 C         -33.474564      -87.422058      -27.084803
 C         -33.824581      -88.168510      -25.773048
 H         -32.714928      -85.552490      -23.797604
 H         -31.724504      -87.099869      -24.020037
 H         -31.617714      -86.532341      -27.854437
 H         -31.468977      -87.834679      -26.863102
 H         -34.768253      -86.393707      -24.895676
 H         -34.027424      -87.778412      -23.615280
 H         -33.510750      -88.128403      -27.895863
 H         -34.222561      -86.542404      -27.245947
 H         -34.811226      -88.755226      -25.808041
 H         -33.078976      -89.006378      -25.591463
