20
 generated by VMD
 C         -11.525707      -25.937040       -0.871046
 N         -11.334908      -24.977289       -0.313885
 H          -7.655665      -26.005529       -1.112406
 H          -9.055444      -25.586857       -2.164765
 C          -7.945328      -25.576895       -2.034127
 C          -7.392667      -26.423820       -3.201971
 C          -7.369583      -24.199039       -2.099007
 C          -7.584722      -25.720350       -4.530196
 C          -7.589709      -23.522877       -3.424967
 C          -6.955868      -24.316172       -4.488328
 H          -7.772287      -27.440323       -3.202556
 H          -6.326983      -26.728230       -2.939435
 H          -7.798242      -23.528856       -1.306522
 H          -6.331932      -24.167116       -1.851441
 H          -8.617794      -25.622433       -4.890080
 H          -7.207153      -26.343405       -5.338349
 H          -7.061911      -22.569201       -3.446273
 H          -8.658304      -23.333530       -3.554235
 H          -7.059973      -23.864891       -5.503509
 H          -5.899706      -24.325146       -4.284363
