20
 generated by VMD
 C         -59.570400     -157.721451      -56.638908
 N         -59.008617     -158.693481      -56.900444
 H         -60.373013     -157.783691      -53.352051
 H         -60.122231     -156.858917      -56.313206
 C         -59.900478     -158.503754      -52.698795
 C         -58.520054     -158.369614      -52.350189
 C         -60.388741     -159.934402      -52.973362
 C         -57.887516     -159.394119      -51.372879
 C         -59.837196     -161.047821      -52.106155
 C         -58.242401     -160.885162      -52.031719
 H         -58.361454     -157.355377      -51.922199
 H         -57.904106     -158.550125      -53.210548
 H         -61.504482     -159.975510      -53.020893
 H         -60.041916     -160.187500      -54.045433
 H         -58.272728     -159.249161      -50.285706
 H         -56.776711     -159.344406      -51.348797
 H         -60.106274     -162.093903      -52.483089
 H         -60.231915     -160.957413      -51.066975
 H         -57.945137     -161.730804      -51.415562
 H         -57.771759     -160.968735      -53.069397
