20
 generated by VMD
 C         -12.518338      -30.251175       -8.028770
 N         -13.370147      -30.230520       -7.313541
 H         -11.128820      -30.239981       -5.165874
 H         -10.505626      -30.790600       -3.578007
 C         -10.840916      -31.143736       -4.578496
 C          -9.672966      -31.712337       -5.357902
 C         -11.914006      -32.246098       -4.415395
 C          -8.947249      -32.856369       -4.731091
 C         -11.205192      -33.474392       -3.725323
 C          -9.989512      -33.941910       -4.452516
 H          -8.925667      -30.879339       -5.534755
 H         -10.117098      -31.999525       -6.303060
 H         -12.777480      -31.876732       -3.819477
 H         -12.280180      -32.594978       -5.393674
 H          -8.517348      -32.543957       -3.770666
 H          -8.161288      -33.253643       -5.390621
 H         -11.808861      -34.326874       -3.590151
 H         -10.875414      -33.040787       -2.735535
 H          -9.559093      -34.741264       -3.855517
 H         -10.347473      -34.370075       -5.445145
