20
 generated by VMD
 C         -36.349754      -97.804543      -26.757893
 N         -36.045109      -98.128075      -25.677881
 H         -36.065258      -95.198265      -28.209930
 H         -36.478554      -97.484703      -27.879654
 C         -35.461712      -95.266754      -29.097309
 C         -35.619057      -96.192528      -30.272818
 C         -34.168030      -94.409317      -29.049482
 C         -35.471336      -95.416084      -31.550947
 C         -33.841240      -93.767395      -30.440189
 C         -34.016224      -94.784134      -31.494612
 H         -36.658474      -96.479172      -30.266808
 H         -34.983665      -97.050888      -30.279135
 H         -34.087288      -93.752167      -28.163483
 H         -33.325600      -95.098579      -28.867117
 H         -36.192528      -94.570045      -31.654999
 H         -35.520721      -95.998383      -32.426117
 H         -32.858891      -93.185089      -30.501814
 H         -34.568027      -92.985092      -30.602858
 H         -33.682510      -94.186592      -32.572174
 H         -33.296883      -95.530464      -31.287224
