20
 generated by VMD
 C         -79.652802     -206.884415      -75.198257
 N         -79.899475     -207.546631      -74.310524
 H         -76.995255     -207.676086      -73.308594
 H         -79.241982     -206.395004      -76.054153
 C         -76.794640     -208.136688      -72.257027
 C         -75.588272     -207.896362      -71.419800
 C         -77.979393     -209.017548      -71.698349
 C         -76.040436     -207.523254      -69.962662
 C         -78.080086     -208.966232      -70.241325
 C         -76.824051     -208.753983      -69.384636
 H         -74.836998     -207.109528      -71.746414
 H         -75.083305     -208.856155      -71.475441
 H         -78.928055     -208.708588      -72.200706
 H         -77.796570     -209.972015      -72.152870
 H         -76.623215     -206.567795      -69.936577
 H         -75.078560     -207.379715      -69.405899
 H         -78.585175     -209.952759      -70.055977
 H         -78.745361     -208.216202      -69.831406
 H         -77.181557     -208.533600      -68.353310
 H         -76.196327     -209.657516      -69.206970
