20
 generated by VMD
 C         -68.121277     -185.163467      -67.747360
 N         -67.589432     -185.841415      -66.965858
 H         -69.618027     -185.151520      -64.419792
 H         -68.570976     -184.648987      -68.531731
 C         -69.689888     -185.648560      -63.481415
 C         -70.798820     -185.317200      -62.677860
 C         -69.017067     -186.957214      -63.163464
 C         -70.463943     -185.339630      -61.172371
 C         -68.433884     -186.844208      -61.721355
 C         -69.557716     -186.511475      -60.702183
 H         -71.660042     -185.987015      -62.792278
 H         -71.232925     -184.308517      -62.936539
 H         -69.640213     -187.882660      -63.327999
 H         -68.078987     -187.092407      -63.862007
 H         -71.361084     -185.407532      -60.586315
 H         -70.077545     -184.371994      -60.745613
 H         -67.653748     -186.013672      -61.647095
 H         -67.930962     -187.822433      -61.480782
 H         -70.318253     -187.484970      -60.746689
 H         -69.296761     -186.173431      -59.662468
