20
 generated by VMD
 C         -26.747150      -71.852989      -17.550756
 N         -26.755787      -72.773117      -16.867651
 H         -24.216253      -69.500000      -18.794035
 H         -26.898222      -70.878983      -18.202238
 C         -24.743393      -69.841034      -19.665854
 C         -24.146643      -71.038017      -20.424213
 C         -25.670757      -69.001770      -20.430170
 C         -25.105484      -71.851349      -21.233891
 C         -26.674395      -69.938110      -21.157736
 C         -26.009031      -70.930450      -22.102999
 H         -23.598515      -71.866661      -19.765619
 H         -23.284294      -70.603210      -21.117249
 H         -26.255058      -68.306511      -19.770288
 H         -25.070936      -68.408485      -21.093836
 H         -25.712276      -72.415382      -20.457691
 H         -24.561089      -72.619225      -21.828081
 H         -27.354668      -69.386627      -21.791630
 H         -27.212126      -70.562485      -20.475092
 H         -26.785759      -71.599777      -22.576521
 H         -25.476015      -70.453560      -22.993500
