20
 generated by VMD
 C         -35.394058      -97.934212      -26.497082
 N         -36.380047      -97.683746      -25.919437
 H         -35.838608      -94.926170      -27.986914
 H         -34.443180      -98.060944      -27.045744
 C         -35.421730      -94.968063      -28.976635
 C         -35.775684      -95.966660      -30.127094
 C         -34.021069      -94.342186      -28.992456
 C         -35.485043      -95.274124      -31.467688
 C         -33.887295      -93.605782      -30.372553
 C         -34.128963      -94.646629      -31.530209
 H         -36.791332      -96.371315      -29.968245
 H         -35.148411      -96.831833      -30.025862
 H         -33.965450      -93.552078      -28.227552
 H         -33.219536      -95.066055      -28.948477
 H         -36.262173      -94.465950      -31.712147
 H         -35.589962      -96.033913      -32.202496
 H         -32.826561      -93.093094      -30.485470
 H         -34.579617      -92.782082      -30.316784
 H         -34.007702      -94.213387      -32.543343
 H         -33.389889      -95.346832      -31.537823
