20
 generated by VMD
 C          -2.503558       -8.695184       -0.541678
 N          -1.490931       -8.431569       -0.177873
 H          -3.198504       -9.541121        2.862640
 H          -1.827158      -10.745751        3.395503
 C          -2.912017      -10.614755        3.214646
 C          -3.335342      -11.640079        2.084978
 C          -3.759015      -10.935850        4.458131
 C          -3.312432      -13.130280        2.500088
 C          -3.675864      -12.400704        4.946363
 C          -4.144976      -13.293495        3.807487
 H          -2.707383      -11.490620        1.181548
 H          -4.374455      -11.318446        1.854965
 H          -3.284127      -10.277560        5.188809
 H          -4.828658      -10.584188        4.372616
 H          -2.258527      -13.468273        2.640918
 H          -3.753200      -13.721712        1.642065
 H          -4.190162      -12.523263        5.869739
 H          -2.643453      -12.548535        5.214561
 H          -4.182335      -14.329976        4.102628
 H          -5.119138      -12.948116        3.458902
