20
 generated by VMD
 C         -65.805283     -177.657425      -56.861095
 N         -66.199615     -176.598221      -57.057957
 H         -64.792702     -175.584076      -59.126228
 H         -65.422508     -178.629425      -56.815247
 C         -64.666733     -174.631821      -59.442898
 C         -65.414932     -173.638229      -58.628098
 C         -63.529156     -174.302002      -60.269943
 C         -65.258583     -172.213837      -59.008965
 C         -63.068760     -172.810547      -60.203873
 C         -64.381210     -171.985825      -60.283829
 H         -65.234138     -173.695526      -57.615341
 H         -66.476326     -173.981201      -58.717010
 H         -62.674603     -175.006271      -60.164974
 H         -63.992508     -174.589813      -61.243935
 H         -64.808563     -171.743378      -58.097359
 H         -66.209496     -171.685272      -59.152924
 H         -62.375931     -172.579208      -61.093662
 H         -62.557869     -172.626236      -59.267204
 H         -64.041565     -170.965424      -60.030800
 H         -64.995483     -171.980072      -61.145145
