20
 generated by VMD
 C         -50.699646     -145.055450      -44.869755
 N         -50.819008     -146.005112      -44.264606
 H         -53.514343     -144.429169      -46.447777
 H         -50.436543     -144.226929      -45.445004
 C         -53.555996     -143.583710      -47.148216
 C         -52.600403     -143.492661      -48.235630
 C         -54.654835     -142.601013      -47.137218
 C         -53.346649     -143.499481      -49.594349
 C         -55.516064     -142.674835      -48.430637
 C         -54.519131     -142.485870      -49.624287
 H         -51.970253     -144.426163      -48.097248
 H         -52.021805     -142.537247      -48.090523
 H         -55.230160     -142.785233      -46.187302
 H         -54.397129     -141.408646      -47.019405
 H         -53.636963     -144.488022      -49.867207
 H         -52.489216     -143.347183      -50.260406
 H         -56.288738     -141.909134      -48.423252
 H         -55.903313     -143.706116      -48.470261
 H         -55.272697     -142.694382      -50.419518
 H         -54.198265     -141.395386      -49.619007
