20
 generated by VMD
 C         -27.457861      -86.616211      -26.455721
 N         -28.455387      -86.195641      -26.808023
 H         -31.087282      -85.981682      -25.429966
 H         -26.529919      -86.949478      -26.251610
 C         -31.959011      -86.599747      -25.581200
 C         -32.773232      -87.345406      -24.500475
 C         -32.070900      -87.323196      -26.973267
 C         -34.296124      -87.425125      -24.953825
 C         -33.483990      -87.486519      -27.305643
 C         -34.280636      -88.214684      -26.285206
 H         -32.858437      -86.775597      -23.549627
 H         -32.294426      -88.282501      -24.396559
 H         -31.532539      -86.766701      -27.727293
 H         -31.585443      -88.327873      -26.823574
 H         -34.726704      -86.380424      -25.130812
 H         -34.972599      -87.842331      -24.054546
 H         -33.565331      -88.100830      -28.191263
 H         -33.991516      -86.592072      -27.606077
 H         -35.295689      -88.294533      -26.625013
 H         -33.871719      -89.162483      -26.019211
