20
 generated by VMD
 C         -50.095074     -144.737732      -44.443703
 N         -49.325481     -143.922150      -44.808826
 H         -52.548973     -142.125458      -45.676609
 H         -50.802631     -145.367416      -43.907307
 C         -53.098480     -142.184982      -46.592083
 C         -52.331467     -142.312454      -47.962856
 C         -54.464371     -141.657059      -46.578945
 C         -53.302288     -142.565231      -49.134724
 C         -55.325390     -142.057159      -47.748493
 C         -54.623436     -141.815216      -49.014488
 H         -51.456654     -142.995193      -48.069042
 H         -51.861927     -141.357132      -48.081604
 H         -54.914677     -141.956909      -45.627110
 H         -54.375893     -140.610107      -46.489159
 H         -53.468975     -143.557190      -48.995190
 H         -53.031521     -142.431595      -50.138763
 H         -56.149899     -141.333160      -47.644028
 H         -55.630459     -143.074829      -47.776718
 H         -55.185635     -142.212296      -49.800358
 H         -54.527542     -140.829193      -49.247780
