20
 generated by VMD
 C         -49.956009     -142.854034      -45.488739
 N         -48.863464     -143.114685      -45.261929
 H         -51.877560     -139.903168      -45.629082
 H         -50.985764     -142.681656      -45.699757
 C         -52.580635     -140.286316      -46.361923
 C         -52.235752     -140.467209      -47.706757
 C         -54.053806     -140.357742      -45.928547
 C         -52.758034     -141.805099      -48.160164
 C         -54.610683     -141.708694      -46.370750
 C         -54.237980     -142.021179      -47.860264
 H         -51.178211     -140.433411      -47.696747
 H         -52.653622     -139.608887      -48.288795
 H         -54.324753     -140.378281      -44.837078
 H         -54.635986     -139.475174      -46.488888
 H         -52.297672     -142.520828      -47.602081
 H         -52.563705     -141.888580      -49.172722
 H         -55.652287     -141.829224      -46.434433
 H         -54.240971     -142.377792      -45.610504
 H         -54.450153     -143.038391      -47.958916
 H         -54.821678     -141.447006      -48.505394
