20
 generated by VMD
 C         -38.502575     -108.740189      -36.678398
 N         -37.337616     -108.801750      -36.703003
 H         -41.776756     -109.591377      -36.329983
 H         -39.530293     -108.848969      -36.802898
 C         -42.010479     -110.468201      -35.644432
 C         -41.435276     -111.812881      -35.814419
 C         -42.650879     -110.134720      -34.327595
 C         -40.578781     -112.305634      -34.565464
 C         -41.955547     -110.692726      -33.047119
 C         -41.481407     -112.165833      -33.250473
 H         -40.700958     -111.763161      -36.582645
 H         -42.207211     -112.617432      -35.980019
 H         -42.813305     -109.077843      -34.176094
 H         -43.587654     -110.581856      -34.332584
 H         -39.736031     -111.698563      -34.371521
 H         -40.220932     -113.398308      -34.837444
 H         -42.601101     -110.622162      -32.206074
 H         -41.167141     -110.053123      -32.837467
 H         -40.853119     -112.581436      -32.371391
 H         -42.252449     -112.855042      -33.327881
