20
 generated by VMD
 C         -61.599812     -154.618515      -53.923893
 N         -62.055199     -155.440689      -53.330269
 H         -58.103634     -154.528000      -52.200375
 H         -61.060047     -153.838684      -54.464043
 C         -57.147144     -154.639893      -51.714958
 C         -57.217838     -154.352737      -50.264912
 C         -55.879982     -154.556076      -52.523636
 C         -56.079556     -154.724335      -49.451767
 C         -54.733566     -154.909058      -51.594395
 C         -54.822453     -154.231827      -50.173492
 H         -58.070187     -154.942581      -50.040974
 H         -57.356030     -153.319443      -49.948063
 H         -56.009232     -155.268707      -53.337517
 H         -55.636074     -153.498108      -52.957283
 H         -55.815250     -155.826309      -49.383629
 H         -56.098270     -154.180374      -48.507729
 H         -53.807152     -154.724380      -52.060532
 H         -54.846962     -156.009277      -51.272476
 H         -53.916428     -154.510376      -49.686146
 H         -54.713463     -153.105499      -50.251099
