20
 generated by VMD
 C         -51.292080     -127.683716      -41.219166
 N         -51.710785     -128.601913      -41.808357
 H         -47.435230     -127.801086      -40.403034
 H         -50.638950     -126.883156      -40.942989
 C         -46.587025     -127.222076      -40.659447
 C         -45.308891     -127.714714      -40.093975
 C         -46.726143     -125.879501      -41.213757
 C         -44.039448     -127.042824      -40.860928
 C         -45.477818     -125.341011      -41.933968
 C         -44.285362     -125.551071      -41.017429
 H         -45.096966     -128.758240      -40.165794
 H         -45.172806     -127.314102      -39.043095
 H         -47.441685     -125.831802      -42.059502
 H         -47.157715     -125.258263      -40.533195
 H         -43.939667     -127.466988      -41.815403
 H         -43.184231     -127.297737      -40.263664
 H         -45.463295     -124.293106      -42.080105
 H         -45.337227     -125.758507      -42.928604
 H         -43.350956     -125.055618      -41.299305
 H         -44.514812     -125.177162      -39.984112
