20
 generated by VMD
 C         -27.204109      -72.813377      -17.917425
 N         -27.951757      -73.336288      -17.227551
 H         -25.018761      -70.481377      -18.662519
 H         -26.467628      -72.504478      -18.539648
 C         -25.046877      -70.662956      -19.691118
 C         -24.438885      -71.856270      -20.315418
 C         -25.528730      -69.670509      -20.718502
 C         -25.278486      -72.411140      -21.396807
 C         -26.502064      -70.192009      -21.732761
 C         -25.925043      -71.402100      -22.380793
 H         -24.190504      -72.533218      -19.368391
 H         -23.465460      -71.511848      -20.670656
 H         -25.964878      -68.782272      -20.130127
 H         -24.617254      -69.369080      -21.240036
 H         -26.156878      -72.934044      -21.024672
 H         -24.604338      -73.165871      -21.907036
 H         -26.675234      -69.468430      -22.563101
 H         -27.442303      -70.440445      -21.179657
 H         -26.646090      -71.876938      -22.980221
 H         -25.053003      -71.151016      -23.016645
