20
 generated by VMD
 C         -18.450649      -50.055050       -9.660940
 N         -19.443218      -50.551926       -9.474038
 H         -16.310312      -47.197346      -10.148034
 H         -17.480007      -48.589790      -10.221971
 C         -16.756269      -47.863873      -10.910867
 C         -15.638876      -48.773640      -11.521478
 C         -17.615128      -47.064613      -11.912790
 C         -16.404343      -49.694740      -12.467444
 C         -17.965816      -47.816582      -13.154464
 C         -16.902832      -48.844524      -13.590564
 H         -15.249443      -49.322624      -10.640276
 H         -14.861221      -48.180431      -12.036914
 H         -18.491617      -46.651779      -11.445009
 H         -16.966909      -46.248535      -12.146212
 H         -17.237240      -50.254757      -11.956384
 H         -15.707052      -50.374409      -12.972430
 H         -18.203173      -47.105530      -13.963699
 H         -18.846014      -48.372574      -12.863659
 H         -17.249485      -49.537575      -14.418063
 H         -16.079020      -48.229351      -14.067843
