20
 generated by VMD
 C         -67.568649     -179.774887      -58.483078
 N         -68.256760     -179.861237      -59.413929
 H         -67.478813     -176.775208      -59.928349
 H         -66.990906     -179.786713      -57.606697
 C         -66.404976     -176.438324      -60.171043
 C         -66.076294     -175.666351      -61.424835
 C         -65.244209     -176.918030      -59.264881
 C         -64.970505     -174.620239      -61.183315
 C         -64.097275     -175.961548      -59.152233
 C         -63.705112     -175.328247      -60.529430
 H         -66.944031     -175.140518      -61.934982
 H         -65.846802     -176.386215      -62.187355
 H         -65.772919     -177.057648      -58.260921
 H         -64.939903     -177.994568      -59.525543
 H         -65.182503     -173.623108      -60.699150
 H         -64.662712     -174.342880      -62.314316
 H         -63.259396     -176.559509      -58.712234
 H         -64.425468     -175.109100      -58.546333
 H         -62.823402     -174.642853      -60.374657
 H         -63.162426     -176.006180      -61.188511
