20
 generated by VMD
 C         -46.742203     -124.734070      -37.494774
 N         -46.905724     -124.639061      -36.356682
 H         -44.555267     -122.031509      -37.716488
 H         -46.490223     -124.546196      -38.497139
 C         -44.755680     -122.052795      -38.840687
 C         -43.434715     -122.240768      -39.641712
 C         -45.919197     -121.403366      -39.412254
 C         -43.646568     -122.389519      -41.123608
 C         -46.032127     -121.707184      -40.945801
 C         -44.711571     -121.461014      -41.696327
 H         -42.976353     -123.184227      -39.401627
 H         -42.670513     -121.396782      -39.398510
 H         -46.838066     -121.809647      -38.883595
 H         -45.889126     -120.318024      -39.167664
 H         -43.960579     -123.415802      -41.349777
 H         -42.619526     -122.176651      -41.623775
 H         -46.718502     -120.905907      -41.300190
 H         -46.534088     -122.564331      -41.185711
 H         -44.923237     -121.760208      -42.751453
 H         -44.533024     -120.366043      -41.841747
