20
 generated by VMD
 C         -75.005714     -201.537613      -66.620407
 N         -75.167213     -201.773819      -65.493294
 H         -76.273445     -199.542786      -69.034485
 H         -74.717293     -201.274506      -67.593147
 C         -75.291649     -198.979187      -69.064644
 C         -75.009911     -197.767639      -68.203781
 C         -74.245270     -199.523529      -69.961792
 C         -73.456917     -197.732605      -68.007568
 C         -73.129250     -198.644684      -70.467964
 C         -72.656830     -197.639542      -69.332901
 H         -75.496742     -197.782318      -67.175346
 H         -75.328835     -196.925797      -68.732445
 H         -73.793709     -200.385590      -69.461395
 H         -74.743889     -200.041824      -70.807014
 H         -73.058105     -198.612961      -67.482086
 H         -73.123764     -196.916138      -67.284409
 H         -73.450523     -198.072891      -71.329369
 H         -72.299789     -199.323029      -70.736084
 H         -71.629044     -197.811020      -69.309631
 H         -72.739548     -196.500366      -69.615776
