20
 generated by VMD
 C         -20.256344      -57.294014      -16.794609
 N         -19.178535      -57.232925      -17.266760
 H         -22.563738      -59.542614      -17.307114
 H         -21.169891      -57.256737      -16.349838
 C         -22.516006      -60.405201      -16.737339
 C         -23.779377      -60.962246      -16.224892
 C         -21.106825      -60.917862      -16.305159
 C         -23.661373      -61.820465      -14.957307
 C         -21.198999      -62.135498      -15.440375
 C         -22.342352      -62.415459      -14.472092
 H         -24.149744      -61.565346      -17.056276
 H         -24.543512      -60.168301      -16.113085
 H         -20.475382      -61.209396      -17.140251
 H         -20.559889      -60.136932      -15.737981
 H         -24.309914      -62.664848      -15.194832
 H         -24.103468      -61.283779      -14.152468
 H         -20.215771      -62.404942      -15.065199
 H         -21.336720      -63.002766      -16.184649
 H         -22.466419      -63.499611      -14.358623
 H         -22.110394      -61.985046      -13.492186
