20
 generated by VMD
 C         -59.083118     -152.262192      -50.723164
 N         -59.661373     -153.075333      -50.107231
 H         -57.036854     -151.279892      -48.909645
 H         -58.432377     -151.607376      -51.355381
 C         -56.250713     -150.990417      -49.598053
 C         -55.293491     -152.118958      -49.899166
 C         -55.554943     -149.618637      -49.179462
 C         -54.497562     -151.732773      -51.166828
 C         -54.769073     -149.281845      -50.463112
 C         -53.772865     -150.344391      -51.058868
 H         -55.734310     -153.096191      -49.968899
 H         -54.591625     -152.159317      -49.030067
 H         -56.315876     -148.818634      -49.040306
 H         -54.927975     -149.590637      -48.230396
 H         -55.084946     -151.852005      -52.088551
 H         -53.727554     -152.477661      -51.285751
 H         -54.326591     -148.246979      -50.388592
 H         -55.483669     -149.333633      -51.303238
 H         -53.498081     -150.168961      -52.130043
 H         -52.990299     -150.576752      -50.406258
