20
 generated by VMD
 C         -60.331562     -170.163589      -55.062447
 N         -59.271603     -170.148544      -55.426434
 H         -63.447777     -170.762421      -57.083813
 H         -61.400890     -170.196030      -54.852654
 C         -63.481289     -169.686310      -57.084587
 C         -62.399044     -168.977310      -57.863853
 C         -64.278450     -168.720642      -56.189877
 C         -63.092426     -167.907776      -58.666054
 C         -64.845306     -167.661911      -57.053562
 C         -63.831608     -166.891525      -57.876652
 H         -62.037430     -169.862793      -58.509995
 H         -61.620827     -168.664536      -57.315971
 H         -65.140739     -169.322327      -55.722771
 H         -63.787243     -168.163849      -55.372799
 H         -63.820099     -168.431366      -59.405113
 H         -62.307777     -167.325394      -59.245823
 H         -65.530907     -166.983948      -56.561161
 H         -65.542679     -168.179047      -57.766987
 H         -64.466217     -166.302612      -58.539528
 H         -63.075367     -166.343185      -57.309299
