20
 generated by VMD
 C         -58.519760     -161.994797      -56.419373
 N         -57.402828     -161.663956      -56.426758
 H         -59.448128     -164.496506      -55.436737
 H         -59.581486     -162.302567      -56.473362
 C         -60.306545     -164.172119      -54.986450
 C         -60.260025     -163.787338      -53.523552
 C         -61.628128     -164.360931      -55.502270
 C         -61.210396     -162.684982      -53.135857
 C         -62.632702     -163.416122      -55.021843
 C         -62.603142     -163.083847      -53.569370
 H         -59.236889     -163.510803      -53.358299
 H         -60.512356     -164.602310      -52.982716
 H         -61.539181     -164.408340      -56.651215
 H         -61.865692     -165.373260      -55.245098
 H         -61.002594     -161.729630      -53.433800
 H         -61.199558     -162.563568      -52.038410
 H         -63.647915     -163.936264      -55.313576
 H         -62.391109     -162.526093      -55.588257
 H         -63.278725     -162.259003      -53.447289
 H         -63.026272     -163.816269      -52.866623
