20
 generated by VMD
 C         -38.033459     -109.920479      -36.268280
 N         -37.462612     -108.917130      -36.074177
 H         -40.222660     -113.235580      -36.400330
 H         -38.641735     -110.829071      -36.291725
 C         -41.288342     -112.975052      -36.219650
 C         -42.436085     -113.799156      -36.552151
 C         -41.536884     -111.844460      -35.177280
 C         -43.321350     -114.185165      -35.379845
 C         -42.448853     -112.226608      -34.024559
 C         -43.692966     -112.884506      -34.620407
 H         -42.102726     -114.717682      -37.055576
 H         -42.982864     -113.364571      -37.423416
 H         -40.455379     -111.621658      -34.724682
 H         -41.884087     -110.855057      -35.641628
 H         -42.639057     -114.755280      -34.739037
 H         -44.229103     -114.680870      -35.819550
 H         -42.632763     -111.295502      -33.390274
 H         -42.057045     -113.048882      -33.341343
 H         -44.479984     -112.969650      -33.961262
 H         -44.031128     -112.258148      -35.509281
