20
 generated by VMD
 C         -23.306238      -52.990253      -12.739107
 N         -22.924273      -52.597973      -13.755370
 H         -20.399548      -54.936462      -13.649388
 H         -23.665245      -53.489159      -11.628139
 C         -19.372507      -54.533482      -13.729043
 C         -18.981930      -53.108543      -14.069442
 C         -18.363863      -55.701550      -14.071957
 C         -17.672878      -52.708141      -13.482288
 C         -17.237860      -55.295624      -13.112853
 C         -16.708326      -53.891644      -13.256641
 H         -19.724360      -52.331978      -13.707238
 H         -19.057337      -52.947556      -15.222362
 H         -18.847279      -56.649292      -13.856843
 H         -18.117392      -55.686096      -15.150039
 H         -17.863201      -52.132740      -12.561401
 H         -17.207144      -51.974106      -14.151014
 H         -16.437044      -55.994354      -13.281167
 H         -17.578867      -55.428593      -12.052905
 H         -16.000719      -53.741047      -12.405010
 H         -16.045410      -53.809467      -14.115466
