20
 generated by VMD
 C         -78.924225     -207.159134      -75.321205
 N         -79.824364     -207.003387      -76.021446
 H         -77.939865     -209.456223      -73.416626
 H         -78.104668     -207.105515      -74.678101
 C         -77.763229     -209.454147      -72.335007
 C         -76.565796     -208.623123      -71.879509
 C         -78.255936     -210.445419      -71.357658
 C         -76.600510     -208.176575      -70.373466
 C         -78.209610     -210.099319      -69.914177
 C         -76.904785     -209.431290      -69.507141
 H         -76.503105     -207.663895      -72.415039
 H         -75.610832     -209.136017      -72.130020
 H         -79.343697     -210.278809      -71.393478
 H         -77.988533     -211.424103      -71.746544
 H         -77.320633     -207.314560      -70.215416
 H         -75.582352     -207.812714      -70.041565
 H         -78.213356     -211.041641      -69.446480
 H         -79.072624     -209.517151      -69.433868
 H         -76.894547     -209.134979      -68.455475
 H         -76.059128     -210.138306      -69.565369
