20
 generated by VMD
 C         -41.085690     -104.215324      -35.832466
 N         -41.941910     -104.900299      -36.176392
 H         -38.462109     -104.037926      -33.292778
 H         -40.106731     -103.812393      -35.494141
 C         -38.146713     -104.982582      -33.013023
 C         -36.856464     -105.264488      -32.280949
 C         -39.238491     -105.948402      -33.122849
 C         -37.094521     -106.297806      -31.152016
 C         -39.259140     -107.019775      -32.078148
 C         -37.878643     -107.573586      -31.713272
 H         -36.430393     -104.348938      -31.899050
 H         -36.116478     -105.658203      -32.946041
 H         -40.087894     -105.348671      -32.972912
 H         -39.314251     -106.361084      -34.198242
 H         -37.776382     -105.738503      -30.442438
 H         -36.224770     -106.761597      -30.652536
 H         -39.714558     -107.856041      -32.494682
 H         -39.755947     -106.778915      -31.157011
 H         -37.945126     -108.316017      -30.824379
 H         -37.433056     -108.030922      -32.554764
