20
 generated by VMD
 C         -18.265177      -50.280598       -8.994251
 N         -19.352409      -50.082924       -9.148860
 H         -16.319498      -47.128925      -10.007623
 H         -17.290527      -48.528240      -10.393924
 C         -16.719122      -47.728977      -10.812946
 C         -15.549271      -48.324940      -11.632366
 C         -17.615231      -46.918987      -11.793632
 C         -16.098581      -49.313835      -12.705140
 C         -17.981451      -47.724548      -13.076530
 C         -16.911940      -48.561333      -13.731238
 H         -14.963923      -48.931431      -10.904917
 H         -14.923662      -47.661713      -12.193838
 H         -18.586006      -46.531967      -11.406356
 H         -16.961700      -46.060326      -12.139458
 H         -16.688374      -50.034515      -12.113664
 H         -15.243423      -49.740475      -13.243964
 H         -18.433289      -47.044491      -13.903881
 H         -18.796194      -48.374397      -12.751246
 H         -17.320505      -49.260464      -14.405646
 H         -16.294655      -47.987701      -14.383103
