20
 generated by VMD
 C         -51.325840     -127.687531      -41.368710
 N         -51.830215     -128.651443      -41.822624
 H         -47.487858     -127.941864      -40.337555
 H         -51.183529     -126.832748      -40.723053
 C         -46.573406     -127.328957      -40.701065
 C         -45.175411     -127.763229      -40.059608
 C         -46.794945     -125.878181      -41.281601
 C         -44.079567     -127.088318      -40.791332
 C         -45.477806     -125.333481      -41.850075
 C         -44.224091     -125.548286      -41.056435
 H         -45.101738     -128.886658      -40.176029
 H         -45.193794     -127.567657      -39.014084
 H         -47.631180     -126.036484      -41.966599
 H         -46.963184     -125.156944      -40.353432
 H         -44.061958     -127.645653      -41.802956
 H         -43.125618     -127.199051      -40.217628
 H         -45.705112     -124.268509      -42.181324
 H         -45.482090     -125.941055      -42.776234
 H         -43.336853     -125.372215      -41.715683
 H         -44.044373     -124.921486      -40.202408
