20
 generated by VMD
 C         -40.508533     -106.836449      -37.504883
 N         -39.412868     -106.655670      -37.838707
 H         -38.658508     -108.184631      -34.470383
 H         -41.473267     -106.899017      -36.991158
 C         -39.253990     -108.946739      -34.044121
 C         -38.668526     -110.010323      -33.231384
 C         -40.738113     -108.814507      -34.330399
 C         -39.680252     -110.545128      -32.107689
 C         -41.616806     -109.367477      -33.301327
 C         -41.087669     -110.707573      -32.731716
 H         -37.854851     -109.534462      -32.691307
 H         -38.180809     -110.813454      -33.780766
 H         -40.936905     -107.666458      -34.384827
 H         -41.022972     -109.210587      -35.310509
 H         -39.731670     -109.767227      -31.178072
 H         -39.273899     -111.492325      -31.743181
 H         -42.614845     -109.393143      -33.613304
 H         -41.722466     -108.718292      -32.414532
 H         -41.709785     -111.101418      -32.059101
 H         -40.969677     -111.436813      -33.605888
