20
 generated by VMD
 C         -40.095455     -100.867958      -30.948978
 N         -40.395107      -99.908585      -31.542728
 H         -37.266052     -103.229790      -31.247751
 H         -39.713333     -101.536240      -30.245764
 C         -36.694008     -102.248146      -31.278347
 C         -36.334732     -101.634308      -32.589500
 C         -35.957607     -101.849892      -30.052147
 C         -36.187782     -100.108360      -32.459488
 C         -35.750729     -100.391594      -29.965031
 C         -35.233795      -99.754578      -31.344282
 H         -37.005901     -101.757629      -33.469414
 H         -35.377407     -101.997383      -32.910332
 H         -36.503231     -102.246124      -29.214350
 H         -34.904018     -102.285759      -30.040462
 H         -37.107349      -99.441452      -32.232670
 H         -35.769234      -99.740654      -33.402306
 H         -34.901665     -100.201607      -29.306749
 H         -36.675823      -99.839645      -29.598097
 H         -35.095913      -98.661385      -31.186453
 H         -34.310661     -100.241463      -31.640820
