20
 generated by VMD
 C         -33.449253      -96.576027      -25.344584
 N         -32.665428      -96.799927      -24.501030
 H         -34.599186      -93.812012      -27.428423
 H         -34.207138      -96.478004      -26.225618
 C         -34.756691      -93.485901      -28.461586
 C         -36.037766      -93.590866      -29.098099
 C         -33.559788      -93.201271      -29.311169
 C         -36.235882      -92.854340      -30.434883
 C         -33.824768      -92.308220      -30.530609
 C         -34.939243      -92.973740      -31.367624
 H         -36.861382      -93.414070      -28.452835
 H         -36.028248      -94.646500      -29.422249
 H         -32.833752      -92.700439      -28.709877
 H         -33.203880      -94.189476      -29.603081
 H         -36.336582      -91.804367      -30.148251
 H         -37.142426      -93.202553      -31.005747
 H         -32.945316      -92.307739      -31.125689
 H         -33.947948      -91.192291      -30.298279
 H         -35.250015      -92.594124      -32.398178
 H         -34.680763      -94.032181      -31.386936
