20
 generated by VMD
 C         -50.667660     -129.960342      -45.078796
 N         -51.453247     -129.215988      -44.751457
 H         -48.951721     -129.525589      -42.876472
 H         -49.984734     -130.811249      -45.186295
 C         -48.290329     -129.629303      -42.067375
 C         -47.920063     -131.033569      -41.603935
 C         -47.454639     -128.379013      -41.574162
 C         -46.466805     -131.231171      -41.119087
 C         -46.027565     -128.795349      -41.247414
 C         -45.933739     -130.053970      -40.399017
 H         -48.165096     -131.780518      -42.432808
 H         -48.553783     -131.238602      -40.830734
 H         -47.475727     -127.513138      -42.269344
 H         -48.029957     -127.949120      -40.687237
 H         -45.978088     -131.431335      -42.038624
 H         -46.381268     -132.098007      -40.525372
 H         -45.566792     -127.927635      -40.613468
 H         -45.447231     -128.800385      -42.186523
 H         -44.871540     -130.330276      -40.156372
 H         -46.442493     -129.973938      -39.431957
