20
 generated by VMD
 C          -3.478571      -17.371933        2.219501
 N          -3.197285      -18.427582        2.009121
 H          -5.588747      -20.365965        0.658854
 H          -5.949937      -20.848629       -0.998806
 C          -6.064608      -20.065918       -0.276263
 C          -5.425643      -18.811939       -0.888641
 C          -7.585044      -19.905708        0.011024
 C          -6.191243      -18.233232       -2.000129
 C          -8.303260      -19.397598       -1.265241
 C          -7.691955      -18.074039       -1.737637
 H          -4.432833      -18.941521       -1.287593
 H          -5.293903      -18.055609       -0.043386
 H          -8.002350      -20.757347        0.425384
 H          -7.789990      -19.250515        0.818401
 H          -6.076768      -18.828859       -2.866467
 H          -5.717144      -17.301085       -2.351374
 H          -9.372813      -19.330933       -1.052501
 H          -8.222860      -20.142756       -2.100164
 H          -8.076696      -17.871927       -2.741783
 H          -7.939285      -17.197163       -1.145198
