20
 generated by VMD
 C         -37.925392     -107.956657      -37.163143
 N         -38.621262     -107.994545      -38.068584
 H         -41.038380     -108.438713      -35.253468
 H         -37.345730     -107.988411      -36.276142
 C         -41.167324     -109.442215      -34.724525
 C         -40.163197     -110.569427      -34.866859
 C         -42.492188     -109.698021      -33.926010
 C         -40.002289     -111.501892      -33.574726
 C         -42.227615     -110.624741      -32.655293
 C         -41.319176     -111.817917      -33.034435
 H         -39.144947     -110.252998      -35.196640
 H         -40.538452     -111.208061      -35.712082
 H         -42.836777     -108.773911      -33.534801
 H         -43.282257     -110.219032      -34.519386
 H         -39.266514     -110.875305      -32.899757
 H         -39.521393     -112.428635      -33.832100
 H         -43.169285     -111.009171      -32.294815
 H         -41.734600     -110.169678      -31.834522
 H         -41.170570     -112.381752      -32.156494
 H         -41.852707     -112.567345      -33.763515
