20
 generated by VMD
 C         -38.058861     -109.644051      -36.500431
 N         -37.486267     -108.920433      -35.828594
 H         -40.886265     -111.817848      -37.229080
 H         -38.771076     -110.289505      -36.956879
 C         -41.542469     -112.091377      -36.396244
 C         -42.313042     -113.363136      -36.338924
 C         -41.719212     -111.055504      -35.153938
 C         -42.545456     -113.981682      -34.949371
 C         -42.170109     -111.774414      -33.877216
 C         -43.285870     -112.905899      -34.171001
 H         -41.628345     -114.018967      -36.873901
 H         -43.274666     -113.455338      -36.974228
 H         -40.701641     -110.550591      -34.919239
 H         -42.437416     -110.332748      -35.608353
 H         -41.472347     -114.187775      -34.505848
 H         -43.111153     -114.890648      -35.022575
 H         -42.517624     -111.002434      -33.134823
 H         -41.383190     -112.412331      -33.309311
 H         -43.620399     -113.204048      -33.204674
 H         -44.135685     -112.477852      -34.703728
