20
 generated by VMD
 C         -73.951103     -201.083694      -65.388710
 N         -72.800674     -201.104340      -65.418419
 H         -74.092796     -198.020370      -66.617172
 H         -75.064369     -201.207230      -65.410400
 C         -74.228592     -197.527985      -67.558640
 C         -74.577263     -196.119202      -67.710907
 C         -73.564583     -198.247925      -68.673058
 C         -73.502213     -195.351517      -68.417442
 C         -73.801323     -197.472168      -70.002769
 C         -73.276619     -195.962555      -69.852081
 H         -74.752899     -195.810226      -66.604233
 H         -75.516792     -195.898666      -68.163635
 H         -72.495018     -198.549667      -68.555779
 H         -74.000450     -199.290161      -68.718689
 H         -72.507103     -195.501602      -67.937180
 H         -73.700256     -194.289230      -68.468536
 H         -74.825516     -197.432083      -70.266449
 H         -73.227020     -198.021896      -70.785782
 H         -72.303032     -195.886719      -70.232498
 H         -74.028976     -195.395416      -70.622955
