20
 generated by VMD
 C         -11.217484      -34.046329       -8.239657
 N         -10.891149      -33.703018       -9.281643
 H         -11.701125      -37.942890       -8.094358
 H         -12.355287      -37.045818       -6.599883
 C         -12.478321      -37.929558       -7.259660
 C         -12.467384      -39.306877       -6.597856
 C         -13.731176      -37.836597       -8.091535
 C         -13.721063      -39.608250       -5.761702
 C         -15.008229      -37.884369       -7.232708
 C         -15.048844      -39.235695       -6.464667
 H         -11.542387      -39.452923       -6.015782
 H         -12.355086      -40.026104       -7.413506
 H         -13.696981      -36.866146       -8.650809
 H         -13.875090      -38.642967       -8.808290
 H         -13.722679      -39.064255       -4.742554
 H         -13.701170      -40.668598       -5.573106
 H         -15.966202      -37.757092       -7.837217
 H         -14.964875      -37.098999       -6.509430
 H         -15.787650      -39.184628       -5.636602
 H         -15.392932      -40.014324       -7.114033
