20
 generated by VMD
 C         -78.334526     -209.724167      -77.053703
 N         -78.750648     -208.850189      -77.651436
 H         -78.882942     -210.701141      -73.413910
 H         -77.857330     -210.548691      -76.570869
 C         -78.851959     -211.603119      -72.876595
 C         -77.626923     -211.801285      -71.950157
 C         -80.010765     -212.618942      -72.943977
 C         -78.064285     -212.208298      -70.572479
 C         -80.479187     -212.721207      -71.463211
 C         -79.271469     -213.230347      -70.667816
 H         -76.930199     -210.924393      -71.989380
 H         -76.987274     -212.572586      -72.392578
 H         -80.848450     -212.142471      -73.470856
 H         -79.663422     -213.596832      -73.335548
 H         -78.390549     -211.293915      -70.111923
 H         -77.256226     -212.574829      -69.930054
 H         -81.381035     -213.374069      -71.524292
 H         -80.923073     -211.765320      -71.104164
 H         -79.581253     -213.822784      -69.802597
 H         -78.904213     -214.041016      -71.275414
