20
 generated by VMD
 C         -39.592464     -105.530312      -37.078068
 N         -40.515839     -106.209877      -37.331108
 H         -38.980225     -108.050072      -35.279087
 H         -38.674881     -105.123192      -36.742741
 C         -39.304707     -108.574806      -34.349869
 C         -38.365582     -108.946404      -33.196606
 C         -40.713284     -109.144730      -34.372341
 C         -39.096092     -109.149712      -31.879833
 C         -41.311199     -109.392143      -32.965935
 C         -40.311008     -109.961937      -32.053665
 H         -37.435081     -108.206108      -33.134338
 H         -37.893333     -109.941986      -33.496964
 H         -41.311058     -108.503235      -34.989868
 H         -40.570293     -110.100761      -34.988728
 H         -39.346535     -108.172592      -31.538486
 H         -38.656052     -109.630714      -31.021521
 H         -42.128880     -110.114204      -33.026207
 H         -41.646389     -108.486168      -32.536308
 H         -40.892075     -110.152397      -31.016788
 H         -40.057755     -110.949905      -32.392319
