20
 generated by VMD
 C         -51.923790     -146.140015      -43.937294
 N         -51.620674     -146.450012      -45.062622
 H         -53.962368     -145.558319      -46.838211
 H         -52.361668     -145.980026      -42.963795
 C         -53.872463     -144.858566      -47.698841
 C         -52.810654     -144.722305      -48.868538
 C         -54.882347     -143.691971      -47.491623
 C         -53.504669     -144.155060      -50.158325
 C         -55.380352     -143.147827      -48.848518
 C         -54.221970     -142.849686      -49.804218
 H         -52.326454     -145.702438      -49.014198
 H         -52.022480     -144.038910      -48.342377
 H         -55.698883     -144.157745      -46.918354
 H         -54.389198     -142.960907      -46.908123
 H         -54.186745     -144.976135      -50.511471
 H         -52.831955     -143.980057      -50.989147
 H         -55.912128     -142.228104      -48.643341
 H         -56.131657     -143.958008      -49.266407
 H         -54.608067     -142.204468      -50.628895
 H         -53.585217     -142.071548      -49.240532
