20
 generated by VMD
 C         -47.861832     -136.515610      -45.942657
 N         -46.892132     -136.039932      -46.472019
 H         -51.033249     -135.488358      -45.989586
 H         -48.830563     -136.958862      -45.697872
 C         -51.594997     -136.235413      -45.370911
 C         -52.211151     -137.400452      -46.029675
 C         -51.801662     -136.270706      -43.834026
 C         -51.942467     -138.750015      -45.353313
 C         -51.503696     -137.529724      -43.221802
 C         -52.276043     -138.714035      -43.935913
 H         -51.909771     -137.368362      -47.060707
 H         -53.324421     -137.158005      -46.090828
 H         -51.199623     -135.397339      -43.413082
 H         -52.831215     -135.968170      -43.608829
 H         -50.861050     -138.884659      -45.325451
 H         -52.443432     -139.713959      -45.765945
 H         -51.873207     -137.539490      -42.198429
 H         -50.375858     -137.749207      -43.191685
 H         -52.282818     -139.650681      -43.393398
 H         -53.332100     -138.590439      -43.883018
