20
 generated by VMD
 C         -69.774338     -183.245956      -65.260963
 N         -69.829689     -182.378860      -66.004585
 H         -67.600616     -184.926178      -62.916515
 H         -69.681587     -184.008774      -64.466881
 C         -67.948753     -184.157440      -62.223152
 C         -68.007843     -184.394211      -60.790279
 C         -67.843201     -182.666687      -62.557968
 C         -67.094299     -183.457397      -59.929451
 C         -67.035347     -181.778137      -61.679245
 C         -67.484932     -182.065659      -60.279488
 H         -67.557861     -185.321793      -60.424870
 H         -69.008041     -184.482391      -60.385078
 H         -67.550880     -182.522888      -63.556866
 H         -68.934868     -182.379990      -62.554359
 H         -66.012337     -183.627609      -60.173943
 H         -67.119080     -183.663681      -58.856415
 H         -67.199020     -180.712997      -61.773338
 H         -66.009895     -181.930008      -61.862919
 H         -66.987877     -181.212173      -59.856026
 H         -68.584335     -181.792206      -60.183750
