20
 generated by VMD
 C         -41.448963     -119.950226      -34.085075
 N         -41.836407     -120.791840      -34.815968
 H         -43.377750     -118.831566      -37.112175
 H         -41.386547     -119.142471      -33.285099
 C         -43.933651     -118.668549      -38.015656
 C         -43.065517     -118.525352      -39.242805
 C         -45.263771     -117.948288      -37.945858
 C         -43.858452     -118.697762      -40.512516
 C         -46.029800     -118.244576      -39.228962
 C         -45.208893     -117.951973      -40.461250
 H         -42.266525     -119.209900      -39.123142
 H         -42.449047     -117.660645      -39.155041
 H         -45.712749     -118.292091      -36.959404
 H         -45.257610     -116.883423      -37.951355
 H         -44.048466     -119.726952      -40.654728
 H         -43.212837     -118.330528      -41.330563
 H         -47.000870     -117.809723      -39.138165
 H         -46.194099     -119.445267      -39.314068
 H         -45.875603     -118.345978      -41.277527
 H         -45.088764     -116.887558      -40.572567
