20
 generated by VMD
 C         -30.176180      -80.182663      -26.348957
 N         -29.360336      -79.408943      -26.479572
 H         -28.389774      -82.802177      -25.289101
 H         -31.137678      -80.809631      -26.439789
 C         -29.206400      -82.846420      -24.586016
 C         -28.970406      -82.042984      -23.386868
 C         -30.047716      -84.031723      -24.731825
 C         -30.304964      -82.001228      -22.614304
 C         -31.258469      -84.125549      -23.740570
 C         -30.819374      -83.439758      -22.372801
 H         -28.728991      -80.972740      -23.758350
 H         -28.158552      -82.547897      -22.906464
 H         -30.594393      -84.053482      -25.701267
 H         -29.358938      -84.858444      -24.628937
 H         -31.081268      -81.430008      -23.026064
 H         -30.012814      -81.396072      -21.677595
 H         -31.608139      -85.125999      -23.464359
 H         -32.052757      -83.602913      -24.200548
 H         -31.692533      -83.153130      -21.688250
 H         -30.047354      -83.959106      -21.832832
