20
 generated by VMD
 C         -59.829453     -157.523239      -56.701408
 N         -59.256691     -158.526474      -56.598763
 H         -60.254257     -157.573837      -53.232426
 H         -60.320301     -156.582275      -56.700150
 C         -59.757912     -158.355423      -52.649220
 C         -58.316368     -158.160095      -52.244427
 C         -60.050175     -159.798248      -53.091957
 C         -57.834057     -159.198776      -51.331825
 C         -59.612999     -160.807098      -52.017467
 C         -58.130150     -160.607849      -51.813835
 H         -58.139164     -157.088242      -51.786163
 H         -57.677670     -158.016876      -53.125992
 H         -61.134224     -159.920319      -53.194103
 H         -59.541100     -160.047638      -53.957859
 H         -58.274509     -158.914749      -50.414234
 H         -56.710648     -159.248413      -51.268986
 H         -59.542084     -161.814987      -52.412910
 H         -60.223583     -160.669342      -51.168194
 H         -57.879971     -161.320724      -51.143951
 H         -57.625515     -160.810440      -52.803055
