20
 generated by VMD
 C         -50.341042     -129.419250      -43.106667
 N         -50.537064     -128.278137      -43.371208
 H         -48.515156     -127.909256      -39.909153
 H         -50.104439     -130.474945      -42.959660
 C         -47.542355     -127.894066      -40.352539
 C         -46.445499     -128.861969      -39.910370
 C         -47.267029     -126.625916      -40.977055
 C         -45.487965     -129.073196      -41.039101
 C         -46.222603     -126.746376      -42.152245
 C         -45.073170     -127.654869      -41.574818
 H         -46.857822     -129.876801      -39.523159
 H         -46.004940     -128.300568      -39.112766
 H         -48.312256     -126.230431      -41.383945
 H         -46.944492     -125.897911      -40.330330
 H         -45.970768     -129.615311      -41.787319
 H         -44.715103     -129.718033      -40.729053
 H         -45.987576     -125.787544      -42.554966
 H         -46.863743     -127.208519      -42.897747
 H         -44.403587     -127.680786      -42.383163
 H         -44.577133     -127.106834      -40.769867
