20
 generated by VMD
 C         -28.871996      -81.426567      -27.655243
 N         -29.723515      -80.667000      -27.479971
 H         -29.251028      -82.229546      -24.055971
 H         -28.090302      -82.205780      -27.868801
 C         -29.622688      -83.217171      -23.906645
 C         -29.815729      -83.860336      -22.531290
 C         -30.158129      -84.030037      -25.075508
 C         -31.403694      -84.026398      -22.355888
 C         -31.663420      -84.283226      -24.875662
 C         -31.949268      -84.808968      -23.468882
 H         -29.347021      -83.194107      -21.771046
 H         -29.199390      -84.833061      -22.643385
 H         -30.057600      -83.357918      -25.990868
 H         -29.626209      -85.010994      -25.172182
 H         -31.756182      -82.947929      -22.432076
 H         -31.645922      -84.336761      -21.438265
 H         -32.201538      -84.967339      -25.466845
 H         -32.292179      -83.313431      -24.877867
 H         -33.063034      -84.590477      -23.352644
 H         -31.758596      -85.895996      -23.388285
