20
 generated by VMD
 C         -52.781555     -147.221802      -45.374676
 N         -53.892399     -147.377258      -45.136425
 H         -54.996437     -147.541306      -48.406891
 H         -51.783665     -147.130875      -45.717918
 C         -54.552292     -146.566528      -48.662338
 C         -53.297222     -146.387115      -49.397099
 C         -55.075401     -145.247833      -47.976849
 C         -53.370834     -145.137344      -50.311359
 C         -55.229927     -144.048218      -49.005329
 C         -53.921333     -143.885757      -49.718971
 H         -53.028320     -147.324783      -49.876053
 H         -52.554733     -146.275528      -48.555611
 H         -56.092434     -145.346100      -47.621044
 H         -54.583080     -145.060181      -47.022068
 H         -53.973087     -145.397614      -51.128452
 H         -52.332905     -144.993118      -50.575825
 H         -55.398769     -143.135071      -48.419018
 H         -56.113766     -144.191757      -49.800934
 H         -53.886337     -143.035110      -50.479153
 H         -53.089775     -143.574661      -49.060314
