20
 generated by VMD
 C          -1.308755      -13.347033        0.778812
 N          -0.407796      -13.547731        0.160896
 H          -4.374498      -13.554373        1.883878
 H          -5.460847      -13.926688        0.526557
 C          -5.033537      -14.363419        1.496190
 C          -6.291077      -14.586514        2.331229
 C          -4.328767      -15.647322        1.077902
 C          -7.267051      -15.533020        1.566564
 C          -5.332472      -16.506435        0.373492
 C          -6.558548      -16.877068        1.152433
 H          -6.681643      -13.573497        2.514868
 H          -5.979857      -15.054736        3.249698
 H          -3.546564      -15.387134        0.407574
 H          -4.034616      -16.158037        1.913941
 H          -7.724824      -15.104312        0.642913
 H          -8.083419      -15.784163        2.284362
 H          -4.739043      -17.426622        0.140969
 H          -5.612777      -15.995104       -0.564159
 H          -7.236266      -17.382242        0.443530
 H          -6.339834      -17.531387        2.044830
