20
 generated by VMD
 C         -79.362053     -205.969452      -74.554718
 N         -79.316460     -206.681900      -73.637352
 H         -78.705910     -206.222305      -70.651917
 H         -79.261841     -205.366409      -75.427902
 C         -77.689613     -206.430283      -70.428322
 C         -76.643433     -205.663559      -71.351402
 C         -77.276154     -207.777985      -69.820389
 C         -75.358757     -205.565643      -70.657364
 C         -75.862091     -207.694824      -69.256325
 C         -74.905991     -206.904343      -70.106148
 H         -77.191925     -204.692978      -71.563637
 H         -76.459404     -206.188675      -72.357666
 H         -78.031189     -208.085419      -69.034424
 H         -77.200981     -208.535400      -70.609421
 H         -75.529686     -204.902100      -69.796730
 H         -74.613060     -205.189529      -71.348747
 H         -75.522263     -208.646194      -69.009666
 H         -75.919250     -207.198212      -68.250282
 H         -74.128334     -206.834503      -69.346252
 H         -74.531052     -207.470642      -70.942337
