20
 generated by VMD
 C         -65.671417     -177.676132      -56.791595
 N         -66.146828     -176.600357      -56.694828
 H         -64.799164     -175.514603      -59.521721
 H         -65.273155     -178.653412      -56.789558
 C         -64.649994     -174.451080      -59.490448
 C         -65.433983     -173.516785      -58.583145
 C         -63.469799     -174.159866      -60.379292
 C         -65.161644     -172.029388      -58.923431
 C         -63.136593     -172.654968      -60.245029
 C         -64.334846     -171.820099      -60.241711
 H         -65.024643     -173.752640      -57.644039
 H         -66.523621     -173.774323      -58.537445
 H         -62.667709     -174.660172      -59.919689
 H         -63.726658     -174.428787      -61.435169
 H         -64.573532     -171.512558      -58.200558
 H         -66.039299     -171.408585      -59.064178
 H         -62.538845     -172.371155      -61.180717
 H         -62.423546     -172.526443      -59.429066
 H         -64.095169     -170.733368      -60.454739
 H         -64.991776     -172.068192      -61.055859
