20
 generated by VMD
 C         -31.716429      -78.852272      -26.441139
 N         -31.027845      -78.057884      -26.906286
 H         -28.911043      -80.371780      -25.021193
 H         -32.315895      -79.657135      -26.219107
 C         -28.838013      -81.154900      -24.156212
 C         -27.590630      -80.989426      -23.285587
 C         -29.956772      -82.088081      -23.756269
 C         -27.960981      -81.171356      -21.772169
 C         -30.102852      -82.140549      -22.253401
 C         -28.823271      -82.388481      -21.549135
 H         -27.178328      -79.950027      -23.497503
 H         -26.963644      -81.799965      -23.619999
 H         -30.935764      -81.723312      -24.284613
 H         -29.834978      -83.126755      -24.000856
 H         -28.615631      -80.298073      -21.549526
 H         -27.224592      -81.105247      -21.014502
 H         -30.841021      -82.943642      -21.883749
 H         -30.648479      -81.154480      -21.972870
 H         -28.953568      -82.471138      -20.453419
 H         -28.379873      -83.417175      -21.707521
