20
 generated by VMD
 C         -38.770882      -98.746719      -27.756268
 N         -38.459560      -99.843307      -27.465279
 H         -37.424957      -97.298027      -31.094961
 H         -39.079239      -97.728775      -27.815989
 C         -36.373566      -97.703865      -30.858606
 C         -35.615761      -98.245216      -31.981768
 C         -35.730537      -97.292793      -29.559559
 C         -34.436966      -97.273117      -32.268478
 C         -34.478725      -96.501678      -29.983700
 C         -33.570858      -96.975273      -30.979914
 H         -36.135681      -98.362556      -32.888691
 H         -35.190971      -99.237686      -31.752348
 H         -36.383766      -96.657692      -29.000898
 H         -35.452282      -98.175964      -28.945389
 H         -34.712925      -96.342346      -32.725990
 H         -33.822575      -97.713829      -32.977139
 H         -33.930893      -96.311646      -29.041241
 H         -34.850918      -95.531303      -30.341619
 H         -32.683113      -96.187759      -31.084307
 H         -33.042988      -97.849068      -30.625568
