20
 generated by VMD
 C          -2.202810      -16.566168        2.474967
 N          -1.568132      -17.480520        2.574720
 H          -4.919641      -16.362791        0.433092
 H          -4.695962      -17.675718       -0.555193
 C          -5.498385      -17.172602       -0.045773
 C          -6.360290      -16.427515       -1.052279
 C          -6.246135      -18.135300        0.811763
 C          -7.201906      -17.326889       -1.894129
 C          -7.106169      -19.108644       -0.040583
 C          -7.964489      -18.372118       -1.111116
 H          -5.686302      -15.806588       -1.610127
 H          -7.044822      -15.768507       -0.455467
 H          -5.402469      -18.705072        1.349864
 H          -6.936513      -17.584940        1.535894
 H          -6.558902      -17.892038       -2.565612
 H          -7.954845      -16.725523       -2.491164
 H          -7.713621      -19.751287        0.578988
 H          -6.311346      -19.690960       -0.587646
 H          -8.372787      -19.099897       -1.831296
 H          -8.832535      -17.911137       -0.682432
