20
 generated by VMD
 C         -32.461605      -93.215363      -25.504570
 N         -32.924156      -94.274162      -25.617666
 H         -33.454288      -94.500641      -28.437691
 H         -32.244297      -92.185722      -25.425425
 C         -34.253777      -94.045464      -29.079197
 C         -35.509571      -93.594818      -28.428885
 C         -33.794426      -93.330139      -30.346394
 C         -35.302658      -92.138565      -28.106886
 C         -33.499687      -91.890007      -29.885275
 C         -34.730618      -91.273209      -29.249031
 H         -35.576824      -94.261269      -27.571810
 H         -36.462147      -93.725967      -28.991968
 H         -32.794819      -93.622284      -30.697977
 H         -34.534801      -93.383308      -31.140024
 H         -34.411591      -92.226082      -27.430567
 H         -36.202358      -91.817863      -27.570223
 H         -33.259060      -91.166649      -30.634396
 H         -32.546654      -91.934959      -29.246071
 H         -34.404331      -90.386101      -28.723995
 H         -35.472317      -91.212967      -30.086626
