20
 generated by VMD
 C         -70.272758     -183.122894      -64.008461
 N         -69.941589     -183.284348      -65.075233
 H         -68.431381     -180.080811      -62.524403
 H         -70.530052     -182.999771      -62.946453
 C         -67.688454     -180.403854      -61.772514
 C         -67.801216     -181.747406      -61.282322
 C         -66.980240     -179.488083      -60.753548
 C         -66.484680     -182.322067      -60.951591
 C         -65.651741     -180.156708      -60.437641
 C         -65.692589     -181.516602      -59.871002
 H         -68.118164     -182.399948      -62.158691
 H         -68.459755     -181.869705      -60.326862
 H         -66.850403     -178.593674      -61.300880
 H         -67.617867     -179.125015      -59.908463
 H         -65.935081     -182.579727      -61.787174
 H         -66.549553     -183.325836      -60.522419
 H         -65.132401     -179.475464      -59.740944
 H         -64.923538     -180.105759      -61.278900
 H         -64.669464     -181.927582      -59.736481
 H         -66.160004     -181.633423      -58.834747
