20
 generated by VMD
 C         -22.588789      -68.327187      -16.659395
 N         -22.437275      -68.831535      -15.616336
 H         -24.058764      -66.384247      -18.103346
 H         -22.618853      -67.769768      -17.668602
 C         -24.616697      -66.633110      -18.992363
 C         -24.028440      -67.372574      -20.164129
 C         -26.064476      -66.706894      -19.143328
 C         -24.509165      -68.754951      -20.406820
 C         -26.599163      -68.182816      -19.165861
 C         -25.988380      -68.871101      -20.474737
 H         -22.965998      -67.395180      -20.034290
 H         -24.300848      -66.716019      -21.138767
 H         -26.361639      -66.327560      -18.228085
 H         -26.399954      -66.213478      -20.028357
 H         -24.147884      -69.425491      -19.651886
 H         -23.907297      -69.094643      -21.263409
 H         -27.665306      -68.300064      -19.081837
 H         -26.176224      -68.744942      -18.340237
 H         -26.241646      -69.921791      -20.533764
 H         -26.504623      -68.315163      -21.251017
