20
 generated by VMD
 C         -47.978561     -124.958839      -38.596527
 N         -47.091019     -125.690186      -38.724850
 H         -45.520042     -123.174103      -37.858528
 H         -48.702599     -124.158539      -38.274590
 C         -45.093159     -122.902199      -38.814114
 C         -44.012375     -123.792694      -39.401428
 C         -45.724369     -121.805466      -39.635620
 C         -44.404362     -124.219536      -40.811127
 C         -46.013962     -122.335907      -41.027023
 C         -44.863491     -122.979591      -41.683666
 H         -43.964809     -124.654243      -38.815792
 H         -42.961147     -123.400513      -39.429325
 H         -46.663250     -121.291313      -39.182480
 H         -44.939594     -121.047737      -39.673870
 H         -45.257019     -124.897469      -40.722839
 H         -43.789127     -124.924995      -41.317486
 H         -46.489506     -121.581726      -41.696171
 H         -46.838329     -123.029396      -41.088394
 H         -45.050880     -123.208420      -42.721779
 H         -44.061214     -122.239830      -41.729927
