20
 generated by VMD
 C         -49.098885     -140.854004      -45.410595
 N         -48.013714     -141.157455      -45.203205
 H         -51.237431     -138.644287      -45.955147
 H         -50.149075     -140.763290      -45.575123
 C         -52.036274     -139.363068      -46.290775
 C         -52.713192     -139.337952      -47.680893
 C         -52.831123     -139.857178      -45.058582
 C         -53.290154     -140.700165      -47.860477
 C         -53.546009     -141.183044      -45.462307
 C         -54.334637     -141.097336      -46.783337
 H         -52.042999     -139.183838      -48.533585
 H         -53.466328     -138.504715      -47.764801
 H         -52.167355     -140.114243      -44.249615
 H         -53.427845     -139.058853      -44.808697
 H         -52.345970     -141.278580      -47.914997
 H         -53.768665     -140.845718      -48.787624
 H         -54.196457     -141.337173      -44.634281
 H         -52.808510     -142.048370      -45.661324
 H         -54.804195     -142.038132      -47.152920
 H         -55.199570     -140.251266      -46.776108
