20
 generated by VMD
 C         -49.953457     -131.507355      -46.673485
 N         -50.234318     -131.780136      -47.717182
 H         -48.249325     -131.940247      -43.864532
 H         -49.683147     -131.414612      -45.614429
 C         -49.050537     -132.215836      -43.181492
 C         -49.661243     -133.605652      -43.308987
 C         -48.720005     -131.736191      -41.737099
 C         -48.928249     -134.619934      -42.550526
 C         -47.982857     -132.870514      -40.937729
 C         -48.723991     -134.157059      -41.053574
 H         -49.725670     -133.862106      -44.337574
 H         -50.724140     -133.657547      -42.911083
 H         -48.152077     -130.790863      -41.801739
 H         -49.587036     -131.465179      -41.128319
 H         -47.919415     -134.802032      -42.964401
 H         -49.348797     -135.638794      -42.460983
 H         -47.746109     -132.543243      -39.989296
 H         -47.001778     -132.943512      -41.396553
 H         -48.201557     -135.036606      -40.517876
 H         -49.701145     -133.915237      -40.726295
