20
 generated by VMD
 C         -61.031788     -155.028015      -53.276688
 N         -61.150337     -154.447662      -52.293190
 H         -58.006401     -154.185089      -52.717079
 H         -60.812340     -155.534317      -54.186977
 C         -57.211620     -154.253418      -51.966755
 C         -57.460369     -154.181763      -50.495197
 C         -55.846329     -153.945969      -52.391670
 C         -56.147934     -154.548904      -49.662636
 C         -54.586006     -154.242538      -51.604610
 C         -54.942982     -153.910080      -50.152805
 H         -58.303974     -154.699387      -50.082314
 H         -57.813004     -153.166382      -50.409286
 H         -55.598492     -154.364929      -53.334061
 H         -55.818825     -152.838272      -52.457760
 H         -56.054207     -155.598404      -49.676460
 H         -56.491692     -154.192535      -48.670780
 H         -53.854782     -153.604156      -52.018982
 H         -54.240883     -155.300308      -51.648777
 H         -53.967987     -154.230667      -49.551193
 H         -54.997932     -152.885284      -49.868416
