20
 generated by VMD
 C         -78.196518     -204.280182      -69.400970
 N         -79.055870     -203.758224      -70.006493
 H         -76.112862     -202.666733      -67.878365
 H         -77.381340     -204.813629      -68.808762
 C         -75.301987     -202.316986      -68.578804
 C         -75.573982     -200.951767      -69.221344
 C         -74.143654     -203.145691      -68.993835
 C         -74.876762     -200.849945      -70.614594
 C         -73.041283     -202.269257      -69.502754
 C         -73.416145     -201.235428      -70.496582
 H         -75.121094     -200.178696      -68.548325
 H         -76.636971     -200.792282      -69.281303
 H         -73.795593     -203.777573      -68.089531
 H         -74.562881     -203.831711      -69.696617
 H         -75.038147     -199.839554      -71.098969
 H         -75.385391     -201.552338      -71.274750
 H         -72.252220     -202.834412      -69.984245
 H         -72.402740     -201.980713      -68.698891
 H         -72.956001     -200.451050      -70.095863
 H         -72.913849     -201.405640      -71.422386
