20
 generated by VMD
 C         -12.692140      -30.122988       -8.316873
 N         -13.521506      -30.716995       -7.873406
 H         -10.944581      -30.489151       -4.969701
 H         -10.763802      -31.383238       -3.576614
 C         -10.816897      -31.574005       -4.622118
 C          -9.490597      -32.056446       -5.107778
 C         -11.916472      -32.565208       -4.807474
 C          -9.157611      -33.422703       -4.373144
 C         -11.644929      -33.879986       -4.058363
 C         -10.348724      -34.454845       -4.609351
 H          -8.753753      -31.326706       -4.855218
 H          -9.532281      -32.243164       -6.227779
 H         -12.857397      -32.082394       -4.501524
 H         -12.001631      -32.788376       -5.878576
 H          -9.107041      -33.145592       -3.297833
 H          -8.180179      -33.814232       -4.678591
 H         -12.477324      -34.603451       -4.251284
 H         -11.576890      -33.647884       -3.011408
 H         -10.130285      -35.452793       -4.114348
 H         -10.391093      -34.682453       -5.692589
