20
 generated by VMD
 C         -60.746010     -153.290390      -52.255131
 N         -60.629383     -152.812088      -51.257401
 H         -57.441212     -153.934036      -50.274227
 H         -60.843697     -153.706711      -53.235352
 C         -56.544891     -153.358170      -50.468037
 C         -55.429089     -153.489227      -49.449921
 C         -56.624668     -152.098999      -51.169590
 C         -54.023956     -153.093765      -50.067211
 C         -55.227627     -151.597076      -51.601341
 C         -54.138145     -151.627090      -50.475548
 H         -55.230659     -154.488495      -48.961384
 H         -55.748089     -152.719910      -48.731506
 H         -57.333641     -152.145706      -51.970730
 H         -57.064686     -151.332916      -50.474571
 H         -53.758114     -153.713409      -50.971378
 H         -53.203224     -153.179581      -49.438297
 H         -55.230934     -150.575363      -51.907803
 H         -54.912037     -152.177109      -52.564548
 H         -53.241589     -151.315033      -50.933407
 H         -54.336361     -150.828400      -49.645645
