20
 generated by VMD
 C         -47.661255     -125.571854      -39.067135
 N         -48.076092     -126.497238      -38.524319
 H         -45.189617     -122.744156      -37.874977
 H         -47.298393     -124.647827      -39.399967
 C         -45.344624     -123.088837      -38.947662
 C         -44.597088     -124.280678      -39.413929
 C         -45.694801     -121.940437      -39.843594
 C         -44.662922     -124.486786      -40.904961
 C         -45.633446     -122.291168      -41.295444
 C         -44.589592     -123.196922      -41.671978
 H         -44.793110     -125.012741      -38.717625
 H         -43.527596     -123.993469      -39.313969
 H         -46.727371     -121.485580      -39.596981
 H         -45.033516     -121.140648      -39.643860
 H         -45.682724     -124.978210      -41.010380
 H         -44.039192     -125.337975      -41.284397
 H         -45.622608     -121.363670      -41.999668
 H         -46.624363     -122.807770      -41.594131
 H         -44.634598     -123.417343      -42.703609
 H         -43.644779     -122.672157      -41.525028
