20
 generated by VMD
 C         -19.853559      -57.473999      -16.890911
 N         -19.205908      -57.961933      -17.738281
 H         -22.659424      -59.685436      -17.168953
 H         -20.300472      -57.187969      -16.027271
 C         -22.665516      -60.466911      -16.487961
 C         -23.968493      -61.230953      -16.243896
 C         -21.379805      -60.900589      -15.795610
 C         -23.638208      -62.694664      -16.089066
 C         -21.469505      -62.223221      -15.106732
 C         -22.852104      -62.797085      -14.801892
 H         -24.574673      -61.160568      -17.219234
 H         -24.598080      -60.814205      -15.417837
 H         -20.693771      -61.140602      -16.640226
 H         -20.984388      -60.035561      -15.245419
 H         -22.948847      -62.983932      -16.941700
 H         -24.586613      -63.306103      -16.114006
 H         -20.801872      -62.171272      -14.194760
 H         -20.890499      -63.026814      -15.609068
 H         -22.891157      -63.864231      -14.386991
 H         -23.366480      -62.196957      -14.033710
