20
 generated by VMD
 C         -60.712265     -153.875656      -51.347542
 N         -61.399883     -154.374176      -52.215454
 H         -57.545380     -153.780609      -52.535904
 H         -60.059357     -153.369766      -50.595573
 C         -56.793674     -153.479858      -51.809574
 C         -56.841331     -153.893417      -50.408001
 C         -55.777325     -152.506607      -52.231770
 C         -55.447811     -154.037689      -49.724361
 C         -54.388214     -152.830231      -51.607296
 C         -54.501938     -152.934402      -50.016941
 H         -57.362949     -154.887650      -50.247536
 H         -57.600403     -153.170486      -49.946205
 H         -55.777210     -152.386765      -53.269444
 H         -56.093777     -151.553665      -51.796391
 H         -54.934940     -154.921387      -50.008667
 H         -55.702396     -154.089584      -48.692848
 H         -53.664757     -152.046814      -51.870548
 H         -53.884575     -153.786514      -51.926495
 H         -53.477478     -152.877304      -49.518318
 H         -55.037727     -152.117798      -49.688488
