20
 generated by VMD
 C         -41.394176     -101.412369      -32.622307
 N         -41.752762     -101.573509      -33.709747
 H         -38.582546     -102.632080      -32.671314
 H         -41.088009     -101.625000      -31.564518
 C         -37.758148     -102.968582      -32.078789
 C         -36.508991     -103.061821      -32.944752
 C         -37.656361     -103.164101      -30.595617
 C         -35.422043     -102.233711      -32.337009
 C         -36.175064     -102.671547      -30.049170
 C         -35.045387     -102.812759      -31.002409
 H         -36.708328     -102.662834      -33.987309
 H         -36.177357     -104.097122      -33.070480
 H         -38.399708     -102.671158      -30.012352
 H         -37.615360     -104.241440      -30.185080
 H         -35.721703     -101.226036      -32.170414
 H         -34.527187     -102.147949      -32.958359
 H         -35.930443     -103.260147      -29.083334
 H         -36.386612     -101.668030      -29.775106
 H         -34.179855     -102.265923      -30.604971
 H         -34.688457     -103.813843      -30.983816
