20
 generated by VMD
 C         -79.224792     -207.265869      -75.253807
 N         -78.712959     -207.141129      -76.328354
 H         -78.953484     -210.292130      -73.236969
 H         -79.739136     -207.589996      -74.406570
 C         -78.267036     -210.224930      -72.423271
 C         -77.231987     -209.094482      -72.323822
 C         -78.502960     -211.174133      -71.229919
 C         -76.877243     -208.609741      -70.741501
 C         -78.366127     -210.450928      -69.896461
 C         -77.068680     -209.684464      -69.754723
 H         -77.251442     -208.308517      -73.077133
 H         -76.350510     -209.700668      -72.472504
 H         -79.486443     -211.654556      -71.481117
 H         -77.770782     -211.956635      -71.085953
 H         -77.485008     -207.740433      -70.510521
 H         -75.785240     -208.319550      -70.739594
 H         -78.317047     -211.146362      -69.112305
 H         -79.308838     -209.841766      -69.931618
 H         -76.886932     -209.274765      -68.735718
 H         -76.296440     -210.490387      -69.858376
