20
 generated by VMD
 C         -30.838152      -75.047798      -22.678534
 N         -31.247215      -75.522125      -21.714367
 H         -28.809109      -77.127434      -21.871136
 H         -30.681738      -74.266685      -23.301392
 C         -27.799435      -77.038078      -21.418659
 C         -26.692188      -77.762779      -22.109901
 C         -27.379646      -75.829262      -20.661251
 C         -25.805162      -76.780785      -22.979414
 C         -26.516638      -74.867676      -21.485319
 C         -25.347469      -75.574326      -22.121668
 H         -27.252369      -78.367867      -22.699863
 H         -26.075966      -78.290588      -21.427086
 H         -28.352829      -75.334663      -20.372902
 H         -26.838202      -76.117134      -19.691635
 H         -26.304403      -76.466270      -23.870701
 H         -24.904406      -77.269295      -23.359850
 H         -26.076662      -74.090126      -20.853489
 H         -27.135508      -74.494774      -22.245211
 H         -25.161552      -74.790703      -22.870041
 H         -24.502802      -75.825836      -21.524122
