20
 generated by VMD
 C         -40.677925     -103.979088      -37.049885
 N         -40.153290     -104.876144      -36.489288
 H         -40.603722     -106.632538      -34.119892
 H         -41.243793     -103.167404      -37.447395
 C         -39.726738     -107.105293      -33.653904
 C         -38.423519     -106.556023      -33.150524
 C         -39.807816     -108.621223      -33.430199
 C         -38.165306     -106.972839      -31.712599
 C         -39.695889     -108.925156      -31.977501
 C         -38.324219     -108.470367      -31.423414
 H         -38.523113     -105.489388      -33.177105
 H         -37.566109     -106.941360      -33.661789
 H         -40.890099     -108.854385      -33.812923
 H         -39.107792     -109.288399      -33.961037
 H         -38.739456     -106.347069      -31.085562
 H         -37.166939     -106.613548      -31.482964
 H         -39.703548     -110.034431      -31.819122
 H         -40.444729     -108.406456      -31.423698
 H         -38.184280     -108.680130      -30.409660
 H         -37.410564     -108.912582      -32.002876
