20
 generated by VMD
 C         -60.214581     -171.045654      -55.283516
 N         -59.292637     -171.790009      -55.091156
 H         -63.102390     -170.477463      -56.664429
 H         -61.022099     -170.383942      -55.570763
 C         -63.362579     -169.451126      -56.849770
 C         -62.407501     -168.598328      -57.490520
 C         -64.795967     -169.065399      -56.609028
 C         -63.005070     -167.970856      -58.726242
 C         -65.330704     -168.360779      -57.883282
 C         -64.427139     -167.262039      -58.505936
 H         -61.441822     -169.304276      -57.742859
 H         -62.067631     -167.939163      -56.774940
 H         -65.336235     -169.913879      -56.258324
 H         -64.717049     -168.513046      -55.734089
 H         -63.164925     -168.735275      -59.541149
 H         -62.215534     -167.218414      -59.190987
 H         -66.331047     -168.076202      -57.700195
 H         -65.484444     -169.052795      -58.674030
 H         -64.855690     -166.930115      -59.433292
 H         -64.214752     -166.327164      -57.925621
