20
 generated by VMD
 C         -12.104408      -37.519783       -7.615763
 N         -10.994238      -37.785671       -7.540712
 H         -12.566860      -41.267254       -8.475772
 H         -13.575103      -40.430042       -7.359298
 C         -13.544510      -40.981869       -8.251638
 C         -14.329265      -42.266464       -8.189653
 C         -14.067410      -40.087067       -9.366805
 C         -15.761795      -41.881607       -7.809488
 C         -15.562651      -39.802830       -9.168918
 C         -16.374945      -41.055923       -8.949409
 H         -13.924920      -43.008476       -7.517628
 H         -14.334582      -42.827145       -9.139313
 H         -13.521597      -39.148903       -9.511772
 H         -13.983356      -40.573242      -10.377651
 H         -15.805573      -41.328461       -6.817600
 H         -16.387032      -42.737003       -7.580645
 H         -15.983527      -39.191433      -10.042764
 H         -15.593996      -39.169624       -8.331465
 H         -17.353693      -40.807098       -8.573664
 H         -16.522333      -41.639275       -9.843007
