20
 generated by VMD
 C         -22.361244      -52.818535      -12.288711
 N         -23.387535      -52.421032      -12.472356
 H         -20.068748      -54.021828      -14.679811
 H         -21.312912      -53.035435      -11.729847
 C         -19.248100      -53.714512      -13.948248
 C         -18.706102      -52.299595      -13.966331
 C         -18.279207      -54.791058      -13.416127
 C         -17.222134      -52.330368      -14.235801
 C         -17.123501      -54.212540      -12.608421
 C         -16.370403      -53.084023      -13.291852
 H         -18.999613      -51.791573      -13.083104
 H         -19.157064      -51.599583      -14.718431
 H         -18.864626      -55.418880      -12.699015
 H         -17.957350      -55.329357      -14.280643
 H         -16.792080      -51.341969      -14.422134
 H         -17.058165      -52.890297      -15.167675
 H         -16.358980      -54.980640      -12.348266
 H         -17.509781      -53.802769      -11.688153
 H         -15.900546      -52.420654      -12.547428
 H         -15.543307      -53.425537      -13.898395
