20
 generated by VMD
 C         -28.439465      -88.140800      -26.150988
 N         -28.461254      -87.001686      -26.123404
 H         -31.189119      -89.318344      -26.410564
 H         -28.409767      -89.154053      -26.098131
 C         -32.218128      -88.964378      -26.429245
 C         -33.124168      -88.881760      -25.286448
 C         -32.700867      -88.829781      -27.848202
 C         -34.129971      -87.768539      -25.412548
 C         -33.797066      -87.789993      -27.877007
 C         -34.922993      -87.981178      -26.703466
 H         -32.633224      -88.733749      -24.404526
 H         -33.738865      -89.733727      -25.221615
 H         -31.809631      -88.639763      -28.431864
 H         -33.206699      -89.732681      -28.300272
 H         -33.749836      -86.752380      -25.418386
 H         -34.703568      -87.822739      -24.582241
 H         -34.149914      -87.853256      -28.972868
 H         -33.335907      -86.788795      -27.817766
 H         -35.785568      -87.239426      -26.876484
 H         -35.252266      -89.034470      -26.835199
