20
 generated by VMD
 C         -31.521240      -77.603287      -26.323803
 N         -31.732073      -78.023010      -27.401285
 H         -29.322628      -79.046219      -23.996386
 H         -31.042549      -77.430046      -25.394621
 C         -28.976694      -79.647133      -23.169956
 C         -27.465181      -79.905205      -23.016233
 C         -29.838327      -80.832588      -22.697065
 C         -27.019255      -80.726135      -21.789948
 C         -29.311096      -81.603439      -21.478104
 C         -27.890802      -82.021294      -21.768835
 H         -26.984100      -78.962090      -22.947853
 H         -27.047913      -80.319786      -23.890177
 H         -30.958935      -80.488770      -22.448215
 H         -29.947672      -81.487770      -23.535189
 H         -27.147951      -80.246750      -20.815016
 H         -25.991377      -80.954590      -21.860300
 H         -29.948948      -82.487762      -21.287313
 H         -29.386784      -80.818626      -20.568508
 H         -27.467899      -82.621178      -21.002605
 H         -27.861618      -82.479111      -22.764843
