20
 generated by VMD
 C         -20.357449      -52.253391       -9.738272
 N         -21.107985      -51.589256      -10.337512
 H         -18.375622      -49.426773      -10.770623
 H         -19.294905      -52.917168       -9.479376
 C         -17.764994      -49.486004      -11.629227
 C         -16.919876      -50.729725      -11.865560
 C         -17.294441      -48.201473      -12.238070
 C         -16.923592      -50.980564      -13.373331
 C         -16.809828      -48.388771      -13.701506
 C         -16.221636      -49.757336      -13.987350
 H         -17.419987      -51.599693      -11.326790
 H         -15.911431      -50.779362      -11.464091
 H         -18.151632      -47.502525      -12.312368
 H         -16.487545      -47.777946      -11.575234
 H         -17.867901      -51.302414      -13.798404
 H         -16.324894      -51.876293      -13.616961
 H         -16.152805      -47.632088      -13.997882
 H         -17.713224      -48.142567      -14.343457
 H         -16.218519      -49.882870      -15.046309
 H         -15.207054      -49.702629      -13.658566
