20
 generated by VMD
 C         -79.318138     -204.657547      -70.795212
 N         -80.375267     -205.213364      -70.738625
 H         -76.876877     -203.292053      -69.196831
 H         -78.361717     -204.225082      -70.775017
 C         -75.788521     -203.045334      -69.280792
 C         -75.649681     -201.966217      -70.312920
 C         -74.807106     -204.081070      -68.860222
 C         -74.266975     -201.552475      -70.471237
 C         -73.355362     -203.637787      -69.123779
 C         -73.128433     -202.659256      -70.252815
 H         -76.251053     -201.112137      -70.197044
 H         -76.062759     -202.315109      -71.294632
 H         -74.948441     -204.265778      -67.777061
 H         -75.079987     -205.028046      -69.357620
 H         -74.150726     -200.749695      -69.769402
 H         -74.036476     -201.038132      -71.396950
 H         -72.791267     -204.534775      -69.566322
 H         -72.839516     -203.445877      -68.210175
 H         -72.246895     -202.087143      -70.098358
 H         -72.967667     -203.289719      -71.170067
