20
 generated by VMD
 C         -47.844715     -136.772842      -46.094261
 N         -47.086586     -136.525467      -46.945202
 H         -50.410511     -136.006134      -45.255844
 H         -48.312527     -136.954666      -45.147003
 C         -50.991886     -136.857986      -44.987625
 C         -51.404869     -137.844009      -46.039242
 C         -51.958511     -136.722488      -43.828266
 C         -52.132214     -139.190582      -45.598942
 C         -52.649788     -138.074310      -43.392181
 C         -53.209839     -138.843796      -44.502007
 H         -50.518661     -138.141815      -46.563969
 H         -52.005100     -137.360458      -46.901119
 H         -51.590046     -136.109039      -42.965145
 H         -52.806820     -136.081604      -44.130508
 H         -51.420715     -139.870346      -45.183720
 H         -52.622845     -139.566513      -46.541500
 H         -53.442829     -137.756470      -42.744682
 H         -51.949444     -138.729523      -42.840725
 H         -53.647854     -139.729492      -44.004456
 H         -54.105114     -138.351303      -44.914886
