20
 generated by VMD
 C         -59.053986     -152.550812      -50.814987
 N         -60.130432     -153.001160      -50.498734
 H         -56.716206     -151.569275      -48.537830
 H         -58.090328     -152.122131      -51.106205
 C         -56.137985     -151.284500      -49.405018
 C         -55.251083     -152.395401      -49.929485
 C         -55.808853     -149.819504      -49.519253
 C         -54.516678     -151.877487      -51.158459
 C         -54.787983     -149.488464      -50.570602
 C         -53.731941     -150.584656      -50.869255
 H         -55.903866     -153.313980      -50.281315
 H         -54.585758     -152.744659      -49.142433
 H         -56.762852     -149.302948      -49.765072
 H         -55.606407     -149.412567      -48.514668
 H         -55.311649     -151.545105      -51.818398
 H         -53.894997     -152.700012      -51.636662
 H         -54.184799     -148.654282      -50.433331
 H         -55.457417     -149.048035      -51.438076
 H         -53.291584     -150.347366      -51.782455
 H         -52.981735     -150.830002      -50.058167
