20
 generated by VMD
 C         -40.424156     -118.766953      -35.392395
 N         -39.497284     -118.166985      -34.992237
 H         -43.428471     -116.620522      -36.140297
 H         -41.150585     -119.560287      -35.712482
 C         -43.775097     -116.766182      -37.180023
 C         -42.914642     -117.354370      -38.259136
 C         -45.213940     -116.333321      -37.301163
 C         -43.748623     -118.268097      -39.122295
 C         -45.935986     -117.037430      -38.453217
 C         -45.009449     -117.297836      -39.584034
 H         -42.127361     -117.854347      -37.778000
 H         -42.569096     -116.480003      -38.695641
 H         -45.823387     -116.336037      -36.414673
 H         -45.233044     -115.228584      -37.748184
 H         -43.956814     -119.186722      -38.501102
 H         -43.163227     -118.644005      -39.981915
 H         -46.804729     -116.528214      -38.828117
 H         -46.460678     -118.071297      -38.128792
 H         -45.431007     -117.829041      -40.394817
 H         -44.507130     -116.433426      -40.179859
