20
 generated by VMD
 C         -48.539928     -135.806961      -46.147343
 N         -47.627880     -136.181076      -45.520149
 H         -52.108395     -135.058914      -45.843822
 H         -49.246010     -135.533234      -46.950317
 C         -51.616116     -135.975327      -45.359142
 C         -52.416344     -137.232010      -45.784206
 C         -51.170761     -135.775757      -43.994637
 C         -51.799538     -138.458878      -45.213451
 C         -50.583832     -137.029541      -43.333313
 C         -51.352215     -138.331421      -43.754025
 H         -52.583984     -137.224640      -46.835743
 H         -53.424534     -137.246414      -45.275032
 H         -50.508823     -134.932007      -43.980171
 H         -52.039482     -135.394608      -43.444393
 H         -50.901260     -138.601517      -45.869366
 H         -52.364082     -139.365356      -45.293705
 H         -50.780617     -136.863358      -42.267246
 H         -49.468937     -137.244522      -43.403126
 H         -50.718887     -139.166550      -43.634644
 H         -52.323189     -138.228867      -43.260086
