20
 generated by VMD
 C         -68.236069     -194.338928      -66.362236
 N         -67.730255     -194.215805      -65.346169
 H         -70.342995     -190.972809      -66.557861
 H         -68.930946     -194.558517      -67.213409
 C         -71.373230     -191.240738      -66.286049
 C         -72.429909     -190.182861      -66.541939
 C         -71.541817     -192.088791      -65.140022
 C         -73.899353     -190.755707      -66.389969
 C         -72.868507     -192.066208      -64.434692
 C         -73.980911     -191.979477      -65.462166
 H         -72.159210     -189.797287      -67.507195
 H         -72.206299     -189.349274      -65.803490
 H         -71.320328     -193.218063      -65.323326
 H         -70.672173     -191.836151      -64.440208
 H         -74.270042     -191.076630      -67.403900
 H         -74.783745     -190.160492      -66.157692
 H         -72.948433     -191.185730      -63.739899
 H         -72.991463     -192.979858      -63.804680
 H         -74.044640     -192.813126      -66.048027
 H         -75.031914     -191.998413      -64.934830
