20
 generated by VMD
 C         -39.336285     -116.347893      -35.119396
 N         -39.421726     -115.440201      -34.399136
 H         -41.354683     -115.786781      -37.436695
 H         -38.977680     -117.165787      -35.831665
 C         -42.499153     -115.866302      -37.539894
 C         -43.005230     -115.776558      -38.963940
 C         -43.374825     -115.687386      -36.300140
 C         -44.414101     -116.379013      -39.097050
 C         -44.632961     -116.500168      -36.520512
 C         -45.300423     -116.019714      -37.863750
 H         -42.356213     -116.195587      -39.778435
 H         -43.018559     -114.620903      -39.057358
 H         -42.900257     -115.861099      -35.345242
 H         -43.717251     -114.618881      -36.283253
 H         -44.237076     -117.435463      -39.290272
 H         -44.927670     -115.965439      -39.993668
 H         -45.306465     -116.331329      -35.658421
 H         -44.452049     -117.637444      -36.671665
 H         -46.145069     -116.486076      -37.949001
 H         -45.532879     -114.971947      -37.918114
