20
 generated by VMD
 C         -10.729441      -37.241146       -8.170887
 N         -10.394805      -36.721661       -7.271643
 H         -12.834411      -39.170662       -7.945883
 H         -14.242495      -39.276825       -6.858307
 C         -13.810329      -39.600956       -7.790518
 C         -13.692353      -41.126190       -7.862390
 C         -14.805861      -39.118145       -8.911930
 C         -15.086495      -41.730461       -7.568485
 C         -16.173576      -39.817699       -8.930092
 C         -16.117676      -41.320919       -8.687349
 H         -12.980378      -41.614197       -7.181440
 H         -13.280263      -41.453072       -8.858193
 H         -14.946991      -38.035492       -8.934303
 H         -14.318736      -39.290779       -9.931374
 H         -15.387277      -41.377399       -6.561282
 H         -15.030719      -42.815823       -7.394288
 H         -16.616686      -39.591492       -9.906118
 H         -16.800972      -39.296570       -8.166943
 H         -17.076576      -41.803764       -8.506433
 H         -15.725970      -41.804188       -9.646906
