20
 generated by VMD
 C         -40.793507     -102.379478      -35.008419
 N         -41.554729     -102.232170      -35.868500
 H         -39.988579     -104.706390      -32.108612
 H         -39.932381     -102.556587      -34.454483
 C         -38.911060     -104.826645      -31.995378
 C         -37.833862     -104.022980      -32.884792
 C         -38.372227     -105.936577      -31.169563
 C         -36.534588     -103.913101      -32.047813
 C         -37.083866     -105.628189      -30.429802
 C         -35.997166     -105.113571      -31.306776
 H         -38.092937     -103.000702      -32.980782
 H         -37.552010     -104.430206      -33.866127
 H         -39.124844     -106.297516      -30.520828
 H         -38.164223     -106.810303      -31.971012
 H         -36.697994     -103.149971      -31.235146
 H         -35.709995     -103.547966      -32.724895
 H         -36.543697     -106.450546      -29.892996
 H         -37.321415     -104.818230      -29.651003
 H         -35.016724     -104.866600      -30.799095
 H         -35.706718     -105.927628      -31.937632
