20
 generated by VMD
 C         -43.882507     -121.474876      -36.149734
 N         -43.724522     -120.544983      -35.487209
 H         -44.954205     -122.476364      -39.526688
 H         -44.301632     -122.327782      -36.665710
 C         -44.677856     -121.357407      -39.295349
 C         -43.416088     -120.856110      -39.776260
 C         -45.829094     -120.548714      -38.897236
 C         -43.308834     -119.397720      -40.166809
 C         -45.812801     -119.132950      -39.402901
 C         -44.307362     -118.612152      -39.395859
 H         -43.057812     -121.544365      -40.596855
 H         -42.681152     -121.107140      -38.919895
 H         -46.721115     -121.101143      -39.238052
 H         -45.928104     -120.408714      -37.852139
 H         -43.655056     -119.247086      -41.175884
 H         -42.343033     -119.028084      -40.206482
 H         -46.442078     -118.535744      -38.917309
 H         -46.053501     -119.044037      -40.392204
 H         -44.320557     -117.530327      -39.633560
 H         -43.992035     -118.568565      -38.286003
