20
 generated by VMD
 C         -11.590317      -26.848188       -0.771662
 N         -12.530883      -26.392952       -1.194295
 H         -10.366626      -26.169107       -4.056291
 H          -9.200213      -25.562279       -5.201900
 C          -9.277802      -26.017242       -4.183846
 C          -8.603871      -27.397379       -4.176020
 C          -8.652041      -25.141138       -3.119247
 C          -7.063948      -27.347416       -4.355259
 C          -7.178619      -24.973776       -3.394766
 C          -6.425378      -26.343405       -3.398309
 H          -9.065723      -28.064865       -4.926806
 H          -8.826522      -27.977505       -3.315159
 H          -9.162361      -24.162134       -3.000059
 H          -8.863215      -25.605677       -2.099149
 H          -6.926089      -27.016197       -5.404021
 H          -6.611024      -28.350775       -4.320431
 H          -6.758147      -24.343170       -2.635954
 H          -7.085049      -24.468264       -4.372616
 H          -5.400831      -26.095331       -3.663532
 H          -6.446303      -26.704767       -2.378114
