20
 generated by VMD
 C         -49.562550     -127.711121      -40.081993
 N         -50.508080     -127.666122      -40.724018
 H         -47.495838     -127.278992      -41.897648
 H         -48.633938     -127.780273      -39.560886
 C         -46.722618     -126.730270      -41.435654
 C         -45.856861     -127.306046      -40.474525
 C         -46.834888     -125.223206      -41.718254
 C         -44.475597     -126.585968      -40.475746
 C         -45.406235     -124.607925      -41.744301
 C         -44.435612     -125.072792      -40.563046
 H         -45.701859     -128.316635      -40.792862
 H         -46.147892     -127.197838      -39.377155
 H         -47.281479     -125.165932      -42.730854
 H         -47.474922     -124.812248      -41.043362
 H         -44.076267     -127.137978      -41.339890
 H         -43.832096     -126.887962      -39.617352
 H         -45.648849     -123.492676      -41.841648
 H         -44.984409     -124.841331      -42.757458
 H         -43.431610     -124.713333      -40.812019
 H         -44.638054     -124.474831      -39.721481
