20
 generated by VMD
 C         -69.314651     -181.340881      -61.217297
 N         -69.599854     -180.208557      -61.382153
 H         -67.398300     -178.741730      -59.676147
 H         -69.222656     -182.402725      -61.062992
 C         -66.284744     -178.562561      -59.808567
 C         -65.725365     -178.722015      -61.181225
 C         -65.482765     -177.606659      -58.757553
 C         -65.137810     -177.443115      -61.736290
 C         -65.093987     -176.339813      -59.456749
 C         -64.274483     -176.610214      -60.718143
 H         -66.280090     -179.109558      -62.027138
 H         -64.803612     -179.370972      -61.164368
 H         -66.215851     -177.269073      -58.061474
 H         -64.733643     -178.227997      -58.224339
 H         -66.069687     -176.632629      -61.899769
 H         -64.563141     -177.640396      -62.739807
 H         -64.616600     -175.630539      -58.718864
 H         -66.022301     -175.825439      -59.852383
 H         -64.086487     -175.695190      -61.234928
 H         -63.300377     -177.160645      -60.605263
