20
 generated by VMD
 C         -13.854449      -29.198248       -7.366363
 N         -13.404078      -29.045750       -8.380016
 H         -11.649082      -30.346014       -4.724368
 H         -10.125134      -30.131338       -3.845423
 C         -10.706041      -30.875292       -4.355504
 C          -9.839291      -31.391739       -5.475896
 C         -11.172310      -31.910667       -3.318651
 C          -8.705873      -32.280388       -4.994016
 C          -9.999112      -32.792027       -2.857274
 C          -9.122920      -33.325176       -3.939485
 H          -9.489120      -30.573948       -6.092852
 H         -10.472654      -32.015644       -6.105239
 H         -11.715147      -31.508345       -2.435840
 H         -11.851699      -32.628925       -3.781553
 H          -7.911937      -31.612974       -4.538245
 H          -8.168679      -32.870632       -5.782978
 H         -10.468320      -33.564957       -2.295977
 H          -9.324162      -32.250244       -2.142840
 H          -8.256947      -33.907837       -3.497006
 H          -9.689872      -34.091507       -4.554130
