20
 generated by VMD
 C         -12.466020      -27.727251       -1.487629
 N         -11.784554      -26.934500       -1.876611
 H         -10.365828      -26.065115       -4.419952
 H          -9.032124      -25.782867       -5.491335
 C          -9.294454      -26.141907       -4.490781
 C          -9.017536      -27.626154       -4.474954
 C          -8.619640      -25.260977       -3.474651
 C          -7.593904      -27.976137       -4.112253
 C          -7.140404      -25.647226       -3.194131
 C          -6.980051      -27.104256       -3.036847
 H          -9.342255      -28.006964       -5.533645
 H          -9.537578      -28.050976       -3.648336
 H          -8.700914      -24.179117       -3.739727
 H          -9.157819      -25.466766       -2.560230
 H          -6.956975      -27.700592       -4.937143
 H          -7.518463      -29.016132       -3.774782
 H          -6.838927      -25.113661       -2.331662
 H          -6.663000      -25.267611       -4.074858
 H          -5.908843      -27.392471       -2.922748
 H          -7.497011      -27.378429       -2.129803
