20
 generated by VMD
 C         -59.800335     -157.534790      -56.734211
 N         -59.240532     -158.539856      -56.617668
 H         -60.246292     -157.500671      -53.012402
 H         -60.335529     -156.591736      -56.703602
 C         -59.770603     -158.396896      -52.635880
 C         -58.289543     -158.066788      -52.288132
 C         -60.099491     -159.830475      -53.080975
 C         -57.825508     -159.207550      -51.332363
 C         -59.593067     -160.827072      -52.040810
 C         -58.168633     -160.669312      -51.819077
 H         -58.141968     -157.167923      -51.661194
 H         -57.684429     -158.016968      -53.202839
 H         -61.160679     -159.984711      -53.067566
 H         -59.802216     -160.077805      -54.171841
 H         -58.359955     -159.314972      -50.319958
 H         -56.780643     -159.072220      -51.103638
 H         -59.892826     -161.817657      -52.495892
 H         -60.206177     -160.763000      -51.121536
 H         -57.756107     -161.354126      -50.956573
 H         -57.617046     -160.841446      -52.786552
