20
 generated by VMD
 C         -79.782295     -205.406326      -71.214760
 N         -80.205757     -206.416550      -71.469643
 H         -77.277672     -203.068954      -70.512825
 H         -79.429146     -204.371063      -70.947281
 C         -76.267349     -203.301987      -70.341660
 C         -75.195801     -202.322586      -70.316536
 C         -75.935394     -204.749405      -70.105087
 C         -73.824097     -202.990585      -70.629227
 C         -74.691322     -204.971436      -69.177811
 C         -73.518974     -203.952896      -69.479538
 H         -75.196930     -201.878922      -69.333717
 H         -75.559456     -201.532806      -71.030167
 H         -76.846474     -205.216583      -69.562523
 H         -75.794014     -205.252396      -71.137115
 H         -72.964500     -202.413666      -70.860283
 H         -73.957222     -203.701126      -71.399994
 H         -74.311935     -205.932877      -69.308929
 H         -75.016197     -204.852112      -68.106430
 H         -73.205040     -203.422653      -68.641716
 H         -72.708626     -204.556351      -69.813385
