20
 generated by VMD
 C         -20.067308      -50.138966       -9.753091
 N         -19.819830      -51.227596       -9.598349
 H         -16.936199      -48.455524       -9.977115
 H         -19.993896      -48.841480       -9.564085
 C         -16.885302      -48.609859      -11.093080
 C         -15.864129      -49.667652      -11.540834
 C         -17.392788      -47.610611      -12.058164
 C         -16.007797      -49.976738      -13.040485
 C         -17.923494      -48.320786      -13.251492
 C         -16.758450      -49.028740      -13.957094
 H         -16.114199      -50.593384      -11.023737
 H         -14.839740      -49.318748      -11.260613
 H         -18.165012      -46.991951      -11.543564
 H         -16.585894      -46.886543      -12.267137
 H         -16.473843      -50.961857      -13.171458
 H         -14.979104      -49.972198      -13.429123
 H         -18.376873      -47.619221      -13.855352
 H         -18.591570      -49.181717      -12.934141
 H         -17.140436      -49.717655      -14.764822
 H         -16.070633      -48.296391      -14.464596
