20
 generated by VMD
 C         -10.807732      -36.519970       -7.848343
 N          -9.854074      -36.955894       -7.536132
 H         -13.103892      -38.843754       -8.207643
 H         -14.280950      -38.819172       -6.896308
 C         -13.989434      -39.300381       -7.835960
 C         -13.690091      -40.772198       -7.644069
 C         -15.021097      -39.117786       -8.904516
 C         -14.893888      -41.638454       -7.628486
 C         -16.257580      -39.845615       -8.646152
 C         -15.895548      -41.306732       -8.699892
 H         -12.984710      -40.971230       -6.782728
 H         -13.026855      -41.148216       -8.473090
 H         -15.198727      -38.015224       -9.011127
 H         -14.641123      -39.366753       -9.930207
 H         -15.454294      -41.556190       -6.654438
 H         -14.576536      -42.675041       -7.588898
 H         -17.069660      -39.596649       -9.414697
 H         -16.633980      -39.615944       -7.668315
 H         -16.800255      -41.950203       -8.539479
 H         -15.462045      -41.549816       -9.706768
