20
 generated by VMD
 C         -50.645290     -129.986053      -45.066471
 N         -51.507072     -129.190857      -44.805187
 H         -49.190308     -129.533707      -42.729813
 H         -50.011131     -130.867401      -45.135994
 C         -48.215370     -129.652435      -42.093925
 C         -47.915146     -130.994873      -41.600670
 C         -47.513794     -128.453537      -41.608238
 C         -46.504868     -131.233536      -41.155693
 C         -46.061878     -128.823624      -41.231388
 C         -45.893101     -130.071686      -40.346767
 H         -48.142269     -131.668182      -42.494362
 H         -48.677635     -131.299393      -40.806469
 H         -47.309303     -127.713326      -42.332527
 H         -47.921604     -128.029465      -40.646793
 H         -45.873718     -131.303909      -42.068901
 H         -46.337624     -132.045547      -40.430641
 H         -45.539494     -128.069229      -40.718334
 H         -45.499786     -128.911530      -42.183193
 H         -44.874992     -130.246017      -39.993145
 H         -46.485558     -130.116791      -39.416210
