20
 generated by VMD
 C         -61.534897     -154.825195      -53.652287
 N         -62.228416     -155.583969      -54.251442
 H         -58.235111     -155.459396      -52.093811
 H         -60.967136     -154.018982      -53.165413
 C         -57.344601     -154.995468      -51.634804
 C         -57.383972     -154.255508      -50.240189
 C         -56.056248     -154.857086      -52.429749
 C         -56.006721     -154.796463      -49.483051
 C         -54.849884     -155.259720      -51.675159
 C         -54.746883     -154.580719      -50.293575
 H         -58.327785     -154.592392      -49.804581
 H         -57.396099     -153.194778      -50.224361
 H         -56.385506     -155.406082      -53.311913
 H         -55.857475     -153.790680      -52.810280
 H         -56.076080     -155.842514      -49.216938
 H         -55.835747     -154.400299      -48.453575
 H         -53.986767     -155.101227      -52.285042
 H         -54.807423     -156.342712      -51.493176
 H         -53.895412     -154.974670      -49.630962
 H         -54.744892     -153.504730      -50.417091
