20
 generated by VMD
 C         -56.331318     -149.799271      -46.455627
 N         -56.742203     -150.586121      -45.673004
 H         -53.247330     -147.640366      -47.599232
 H         -56.005611     -148.950272      -47.088627
 C         -53.656403     -147.394531      -48.614235
 C         -52.968151     -147.712860      -49.877781
 C         -54.685474     -146.313675      -48.537632
 C         -53.824329     -147.521133      -51.080242
 C         -55.302406     -145.822128      -49.916489
 C         -54.443874     -146.112381      -51.145786
 H         -52.622551     -148.753677      -49.980045
 H         -51.991398     -147.188782      -49.965691
 H         -55.336361     -146.573502      -47.740082
 H         -54.224457     -145.497803      -48.022110
 H         -54.702438     -148.192505      -51.009228
 H         -53.298050     -147.813919      -52.083485
 H         -55.379314     -144.646164      -49.720161
 H         -56.247082     -146.272614      -50.130013
 H         -55.201828     -146.122604      -51.911953
 H         -53.704216     -145.325729      -51.424519
