20
 generated by VMD
 C         -39.633282      -99.217346      -28.308102
 N         -38.858536      -99.994659      -27.894194
 H         -37.586578      -98.094376      -30.807476
 H         -40.182148      -98.498337      -28.857924
 C         -36.473480      -97.983284      -30.832706
 C         -35.711823      -98.670708      -31.912537
 C         -35.632763      -97.772224      -29.543108
 C         -34.532356      -97.681030      -32.372971
 C         -34.276840      -97.041260      -29.964357
 C         -33.561153      -97.339394      -31.258804
 H         -36.383274      -98.920013      -32.803894
 H         -35.225376      -99.551575      -31.592894
 H         -36.157078      -97.166618      -28.735617
 H         -35.365555      -98.690086      -29.059153
 H         -34.981644      -96.734810      -32.580231
 H         -33.922359      -98.110748      -33.257160
 H         -33.507168      -97.295555      -29.155231
 H         -34.534081      -96.016762      -29.792746
 H         -33.051815      -96.475098      -31.597645
 H         -32.736645      -98.115044      -31.024597
