20
 generated by VMD
 C         -22.157843      -53.051392      -12.514003
 N         -22.974745      -52.469406      -13.140081
 H         -20.235323      -54.036522      -14.529113
 H         -21.269863      -53.470978      -11.828042
 C         -19.357630      -53.898365      -13.917520
 C         -18.944462      -52.483788      -13.582800
 C         -18.572346      -55.015728      -13.396341
 C         -17.532022      -52.388157      -14.115202
 C         -17.200596      -54.566498      -12.772116
 C         -16.508362      -53.333439      -13.427970
 H         -19.008018      -52.278732      -12.506706
 H         -19.567541      -51.770977      -14.016123
 H         -19.184700      -55.450802      -12.636247
 H         -18.310217      -55.735886      -14.199520
 H         -17.171354      -51.370113      -13.964748
 H         -17.489120      -52.524788      -15.180356
 H         -16.539421      -55.368034      -12.825239
 H         -17.334414      -54.338245      -11.677988
 H         -15.932209      -52.686787      -12.726193
 H         -15.698025      -53.670986      -14.189542
