20
 generated by VMD
 C         -57.647644     -165.375549      -56.549034
 N         -57.210934     -164.472488      -57.215729
 H         -60.402382     -164.546921      -53.863770
 H         -57.959141     -166.201126      -55.935936
 C         -61.353062     -164.727081      -54.384319
 C         -61.912983     -166.115417      -54.248413
 C         -61.676640     -163.983856      -55.635693
 C         -63.393898     -165.962952      -54.349754
 C         -63.133003     -163.984894      -55.950211
 C         -63.816013     -165.390976      -55.761593
 H         -61.766663     -166.308609      -53.124260
 H         -61.515064     -166.791779      -55.013195
 H         -61.365383     -163.057220      -55.341164
 H         -61.005283     -164.361694      -56.410110
 H         -63.764706     -165.371231      -53.479481
 H         -63.979229     -166.894577      -54.273403
 H         -63.218975     -163.587814      -57.008556
 H         -63.592560     -163.233337      -55.160522
 H         -64.880051     -165.143127      -55.902946
 H         -63.723862     -166.055283      -56.604984
