20
 generated by VMD
 C         -50.624039     -129.030930      -42.571079
 N         -51.075638     -128.150345      -41.901356
 H         -48.290997     -128.094345      -40.874531
 H         -50.518654     -129.892303      -43.214264
 C         -47.264698     -127.701584      -40.772667
 C         -46.073273     -128.197021      -40.098625
 C         -47.056286     -126.235085      -41.152443
 C         -44.852909     -127.996239      -40.965866
 C         -45.719547     -125.947273      -41.910252
 C         -44.528309     -126.565598      -41.266884
 H         -46.164909     -129.315033      -39.867477
 H         -45.895302     -127.651840      -39.206528
 H         -47.826050     -125.638931      -41.766346
 H         -47.107906     -125.631622      -40.192524
 H         -44.716473     -128.746887      -41.801594
 H         -43.982300     -128.441803      -40.316784
 H         -45.634174     -124.899605      -42.087170
 H         -45.850155     -126.421837      -42.879391
 H         -43.753632     -126.411652      -42.035599
 H         -44.288605     -125.984100      -40.333378
