20
 generated by VMD
 C         -49.546711     -131.828644      -46.503773
 N         -50.228565     -132.397766      -47.211708
 H         -47.748695     -133.661377      -44.575790
 H         -49.221188     -131.361542      -45.606274
 C         -48.419407     -133.992905      -43.765560
 C         -49.189964     -135.229309      -43.964935
 C         -49.098129     -133.003708      -42.797840
 C         -49.697025     -135.896194      -42.654430
 C         -49.589291     -133.633789      -41.484531
 C         -50.442421     -134.908325      -41.808300
 H         -48.564026     -135.939301      -44.541695
 H         -50.022964     -134.998001      -44.555981
 H         -48.430393     -132.020157      -42.753033
 H         -50.031864     -132.666733      -43.298828
 H         -48.762905     -136.231155      -42.138359
 H         -50.160069     -136.806335      -43.005749
 H         -50.221592     -133.024399      -40.924164
 H         -48.634190     -133.880051      -41.001293
 H         -50.814049     -135.468597      -40.923859
 H         -51.286999     -134.621689      -42.313766
