20
 generated by VMD
 C         -66.490898     -177.930496      -56.927597
 N         -67.646217     -177.986908      -56.956905
 H         -64.266060     -176.115631      -59.349327
 H         -65.384521     -177.849182      -56.898354
 C         -64.351189     -174.988205      -59.650902
 C         -65.549637     -174.243500      -59.193378
 C         -63.197029     -174.484741      -60.390079
 C         -65.272270     -172.645630      -59.199615
 C         -63.002277     -173.003815      -60.397034
 C         -64.320541     -172.312759      -60.379425
 H         -65.870987     -174.619629      -58.276730
 H         -66.317368     -174.383652      -60.029705
 H         -62.363811     -174.812302      -59.876858
 H         -63.150116     -174.698883      -61.409138
 H         -64.779335     -172.354156      -58.270184
 H         -66.232033     -172.095978      -59.151207
 H         -62.380856     -172.721848      -61.357391
 H         -62.399345     -172.681427      -59.560333
 H         -64.034332     -171.232758      -60.129696
 H         -64.635864     -172.335999      -61.437153
