20
 generated by VMD
 C         -59.370911     -168.481125      -55.657169
 N         -58.826908     -168.835266      -54.712296
 H         -62.530846     -169.606689      -55.915825
 H         -59.945610     -168.266891      -56.545212
 C         -62.685715     -168.630157      -56.366287
 C         -62.769234     -168.514694      -57.887402
 C         -62.989693     -167.356094      -55.558456
 C         -63.875843     -167.571854      -58.380264
 C         -64.119133     -166.557968      -56.111156
 C         -63.929523     -166.353119      -57.580647
 H         -62.791721     -169.528610      -58.417942
 H         -61.767521     -168.068848      -58.219616
 H         -63.234993     -167.772171      -54.443954
 H         -61.979370     -166.907333      -55.580318
 H         -64.857307     -168.074738      -58.334927
 H         -63.849705     -167.327271      -59.440895
 H         -64.326630     -165.596924      -55.765942
 H         -65.061981     -166.922791      -55.778526
 H         -64.576767     -165.529221      -57.882000
 H         -62.888748     -165.843811      -57.628937
