20
 generated by VMD
 C         -65.323631     -177.329681      -56.328194
 N         -66.024323     -177.114868      -55.408234
 H         -64.404198     -175.072617      -59.275608
 H         -64.740601     -177.422379      -57.248425
 C         -64.339928     -173.958878      -59.525784
 C         -65.282188     -173.000839      -58.753788
 C         -63.602520     -173.505096      -60.706173
 C         -64.748405     -171.526398      -58.729935
 C         -63.105576     -172.096512      -60.455505
 C         -64.311745     -171.172638      -60.143608
 H         -65.276268     -173.482254      -57.717014
 H         -66.191208     -173.150421      -59.237076
 H         -62.867657     -174.171448      -60.991642
 H         -64.109642     -173.538086      -61.634109
 H         -63.935043     -171.327957      -58.000919
 H         -65.562347     -170.858368      -58.440311
 H         -62.785221     -171.723114      -61.440140
 H         -62.266544     -172.131531      -59.654396
 H         -63.964588     -170.188217      -60.025303
 H         -65.176888     -171.227448      -60.866009
