20
 generated by VMD
 C         -22.563742      -55.562450      -16.405107
 N         -23.098886      -54.577728      -16.403042
 H         -19.673916      -55.457184      -15.532177
 H         -21.848852      -56.188736      -16.626814
 C         -19.848560      -56.463196      -15.034848
 C         -20.573067      -56.654972      -13.720779
 C         -18.630966      -57.525898      -15.230368
 C         -21.008953      -58.148224      -13.441542
 C         -18.931324      -58.953438      -14.640933
 C         -19.741026      -59.004604      -13.366838
 H         -21.462248      -56.012440      -13.724020
 H         -19.988163      -56.251369      -12.918792
 H         -18.408758      -57.685543      -16.261185
 H         -17.673122      -57.189423      -14.776853
 H         -21.637552      -58.476521      -14.316268
 H         -21.648130      -58.110817      -12.534535
 H         -18.055977      -59.658485      -14.593197
 H         -19.608250      -59.401951      -15.425867
 H         -19.903376      -60.076523      -13.190643
 H         -19.095600      -58.625072      -12.561678
