20
 generated by VMD
 C         -70.405411     -197.100342      -66.162003
 N         -69.784325     -196.188507      -65.765968
 H         -72.061302     -194.425644      -64.731422
 H         -70.746719     -198.090714      -66.558479
 C         -72.564323     -194.220856      -65.685188
 C         -72.582100     -192.760605      -66.079407
 C         -73.417160     -195.238831      -66.300903
 C         -73.585350     -192.536758      -67.183945
 C         -73.863396     -194.930756      -67.758736
 C         -73.421593     -193.567245      -68.282097
 H         -71.654091     -192.509933      -66.410728
 H         -72.858696     -192.037704      -65.269051
 H         -73.017616     -196.262222      -66.176147
 H         -74.316879     -195.470642      -65.633934
 H         -73.289505     -191.583588      -67.591400
 H         -74.622246     -192.511917      -66.859978
 H         -74.973724     -195.036682      -67.858482
 H         -73.460701     -195.695618      -68.423882
 H         -72.238037     -193.474411      -68.457176
 H         -73.871117     -193.261917      -69.194000
