20
 generated by VMD
 C         -56.178337     -149.372330      -45.957966
 N         -56.103127     -150.389130      -45.379807
 H         -53.756817     -148.140396      -47.933765
 H         -56.325069     -148.352020      -46.386845
 C         -53.936165     -147.393066      -48.699787
 C         -53.121536     -147.533615      -49.846233
 C         -54.707592     -146.169678      -48.545284
 C         -53.644562     -147.010071      -51.190697
 C         -55.279667     -145.708374      -49.893250
 C         -54.194176     -145.628922      -50.991318
 H         -53.132851     -148.564026      -49.978241
 H         -52.125126     -147.032196      -49.625931
 H         -55.505955     -146.391434      -47.866642
 H         -54.035984     -145.333481      -48.182178
 H         -54.410206     -147.786301      -51.453373
 H         -52.792332     -147.100647      -51.946678
 H         -55.666920     -144.586472      -49.823654
 H         -56.175514     -146.141281      -50.226871
 H         -54.599960     -145.331512      -51.966610
 H         -53.430138     -144.890472      -50.694141
