20
 generated by VMD
 C          -2.229418      -17.906796        2.282463
 N          -1.709128      -17.026928        2.722990
 H          -5.237318      -18.025671        1.065076
 H          -5.101743      -19.068960       -0.406329
 C          -5.764286      -18.298950        0.123893
 C          -6.077119      -17.177715       -0.879494
 C          -7.070029      -19.008169        0.511687
 C          -6.813853      -17.692011       -2.189277
 C          -7.909034      -19.407799       -0.679372
 C          -8.100410      -18.393190       -1.781402
 H          -5.236040      -16.609570       -1.214162
 H          -6.766320      -16.405500       -0.482011
 H          -6.907974      -19.751528        1.248252
 H          -7.615120      -18.341017        1.190962
 H          -6.093690      -18.297499       -2.805909
 H          -6.969740      -16.807077       -2.889699
 H          -8.892566      -19.685677       -0.307531
 H          -7.524750      -20.377493       -1.087121
 H          -8.564883      -18.869574       -2.672559
 H          -8.816679      -17.663626       -1.403639
