20
 generated by VMD
 C         -51.013599     -127.677483      -41.104359
 N         -51.579990     -128.516632      -41.719994
 H         -47.420746     -127.746109      -40.420658
 H         -50.668644     -126.956398      -40.382404
 C         -46.648247     -127.128654      -40.772179
 C         -45.300995     -127.691376      -40.088638
 C         -46.820404     -125.738823      -41.311508
 C         -44.127769     -126.987701      -40.808865
 C         -45.435059     -125.264687      -41.868752
 C         -44.271236     -125.501328      -40.980270
 H         -45.159306     -128.852661      -40.097721
 H         -45.369362     -127.444595      -39.035034
 H         -47.614384     -125.849045      -42.178238
 H         -47.141804     -125.073196      -40.398094
 H         -44.070347     -127.440910      -41.845901
 H         -43.209488     -127.232323      -40.210056
 H         -45.459770     -124.147148      -42.076508
 H         -45.439735     -125.828011      -42.871441
 H         -43.362358     -125.194160      -41.447979
 H         -44.309422     -124.975395      -40.037876
