20
 generated by VMD
 C         -58.315769     -159.071793      -57.899590
 N         -59.352669     -158.669022      -57.531284
 H         -59.135975     -160.009842      -54.706665
 H         -57.396294     -159.497025      -58.220158
 C         -59.488400     -160.634720      -53.841022
 C         -58.596172     -160.832626      -52.703899
 C         -60.620445     -161.545609      -53.891048
 C         -59.278938     -161.084198      -51.425892
 C         -61.354210     -161.741425      -52.616100
 C         -60.456512     -162.124680      -51.489620
 H         -58.026600     -159.932312      -52.599548
 H         -58.003292     -161.749649      -52.981083
 H         -61.381653     -161.096252      -54.675133
 H         -60.425991     -162.558487      -54.279396
 H         -59.646469     -160.049957      -51.028427
 H         -58.505478     -161.170792      -50.607525
 H         -62.020458     -162.580170      -52.785500
 H         -62.025295     -160.900375      -52.450581
 H         -60.895813     -162.211487      -50.546406
 H         -60.042782     -163.128540      -51.526878
