20
 generated by VMD
 C          -0.934700      -13.425254        0.832833
 N          -0.271023      -13.370529       -0.070003
 H          -4.610012      -13.438959        2.113117
 H          -5.630716      -13.566456        0.715291
 C          -5.267365      -14.127983        1.559295
 C          -6.459386      -14.593535        2.478620
 C          -4.373452      -15.269827        1.068171
 C          -7.232821      -15.623222        1.740904
 C          -5.206944      -16.393917        0.422406
 C          -6.444378      -16.808514        1.211881
 H          -7.070668      -13.677504        2.492356
 H          -6.110119      -14.885415        3.468445
 H          -3.713649      -14.800036        0.295256
 H          -3.670941      -15.670280        1.931053
 H          -7.562030      -15.139517        0.838771
 H          -8.108159      -15.921683        2.288856
 H          -4.558043      -17.221344        0.273842
 H          -5.449947      -16.026701       -0.575128
 H          -7.132762      -17.479809        0.717669
 H          -6.105064      -17.271559        2.119065
