20
 generated by VMD
 C         -38.286350      -98.606995      -27.813673
 N         -38.283848      -99.600250      -27.222366
 H         -37.481934      -97.635765      -30.880232
 H         -38.159805      -97.691666      -28.491142
 C         -36.340832      -97.521866      -30.740423
 C         -35.575947      -98.046570      -31.843834
 C         -35.609394      -97.092972      -29.488270
 C         -34.497341      -97.052513      -32.231216
 C         -34.554329      -96.131454      -29.904709
 C         -33.663509      -96.850578      -30.973070
 H         -36.210884      -98.312057      -32.698536
 H         -34.970062      -98.932922      -31.610382
 H         -36.281330      -96.694809      -28.724915
 H         -35.059116      -97.898430      -29.027895
 H         -34.966232      -96.069206      -32.411808
 H         -33.861702      -97.462967      -33.189724
 H         -33.979965      -95.781929      -29.006535
 H         -35.016769      -95.249313      -30.291309
 H         -32.850571      -96.301643      -31.300093
 H         -33.305889      -97.723129      -30.363630
