20
 generated by VMD
 C         -50.130165     -129.235977      -42.996674
 N         -50.625957     -128.397247      -43.610424
 H         -48.631588     -128.141113      -39.738697
 H         -49.494339     -130.004227      -42.590443
 C         -47.695602     -128.034576      -40.265869
 C         -46.651604     -128.938766      -39.962345
 C         -47.332134     -126.773537      -41.049843
 C         -45.555851     -129.061035      -41.057331
 C         -46.301357     -126.960831      -42.102375
 C         -44.954460     -127.741081      -41.633839
 H         -47.065140     -129.856323      -39.699085
 H         -46.030392     -128.547195      -39.116516
 H         -48.228455     -126.578957      -41.568043
 H         -47.069324     -126.005951      -40.190987
 H         -45.940380     -129.638992      -42.011692
 H         -44.738293     -129.856842      -40.943466
 H         -46.021564     -125.997925      -42.640884
 H         -46.596512     -127.581902      -42.972466
 H         -44.290974     -128.069565      -42.491463
 H         -44.380405     -127.115089      -40.924217
