20
 generated by VMD
 C          -1.216656      -12.817001        1.165018
 N          -0.626942      -12.829085        0.235871
 H          -4.210921      -13.035151        1.511726
 H          -5.770473      -13.318961        0.648279
 C          -4.989946      -13.759496        1.226163
 C          -5.648639      -14.082171        2.621332
 C          -4.372273      -14.972667        0.548355
 C          -6.583991      -15.276601        2.525893
 C          -5.502873      -16.072517        0.391720
 C          -6.021549      -16.437120        1.783476
 H          -6.271497      -13.233105        2.929485
 H          -4.915427      -14.182149        3.390073
 H          -4.029224      -14.667713       -0.402808
 H          -3.572715      -15.383768        1.082377
 H          -7.437088      -14.886401        1.916388
 H          -6.997240      -15.569647        3.521377
 H          -5.125601      -16.973824       -0.116540
 H          -6.306336      -15.651303       -0.285278
 H          -6.717100      -17.262054        1.730467
 H          -5.142540      -16.765425        2.337174
