20
 generated by VMD
 C         -27.155457      -72.671516      -17.782242
 N         -27.897350      -73.365662      -17.182816
 H         -24.486826      -70.052071      -18.852121
 H         -26.309734      -72.230316      -18.402536
 C         -24.872513      -70.447159      -19.759918
 C         -24.354185      -71.687469      -20.414419
 C         -25.613834      -69.544128      -20.611530
 C         -25.405907      -72.393387      -21.317757
 C         -26.470016      -70.178848      -21.679981
 C         -25.811653      -71.381538      -22.349031
 H         -24.030527      -72.385002      -19.670336
 H         -23.474625      -71.362839      -20.966673
 H         -26.282639      -68.959084      -19.989527
 H         -24.880655      -68.925453      -21.079033
 H         -26.245106      -72.711578      -20.690493
 H         -25.064041      -73.244194      -21.919611
 H         -26.629503      -69.380585      -22.350523
 H         -27.333649      -70.529953      -21.175917
 H         -26.610716      -71.905136      -22.981026
 H         -25.020750      -71.108040      -23.108213
