20
 generated by VMD
 C          -8.037599      -23.560726        2.082449
 N          -7.711856      -23.511374        3.148824
 H          -8.949125      -23.572786       -1.514488
 H          -9.410408      -22.560030       -2.896703
 C          -8.529073      -22.941135       -2.371313
 C          -7.757827      -23.742462       -3.369471
 C          -7.777816      -21.765318       -1.832407
 C          -7.012081      -22.893259       -4.355295
 C          -6.977332      -20.952299       -2.904071
 C          -6.158667      -21.875986       -3.721050
 H          -8.509095      -24.482075       -3.754308
 H          -7.042779      -24.397581       -2.916899
 H          -8.390578      -21.010059       -1.298168
 H          -7.031950      -22.249683       -1.215202
 H          -7.627116      -22.307961       -5.032009
 H          -6.343800      -23.482967       -5.007811
 H          -6.297119      -20.241842       -2.429112
 H          -7.701971      -20.449642       -3.543761
 H          -5.695934      -21.347298       -4.528108
 H          -5.452190      -22.392454       -3.104193
