20
 generated by VMD
 C         -67.274948     -191.648331      -66.253113
 N         -67.111320     -191.137360      -67.263855
 H         -70.257431     -190.114090      -66.388107
 H         -67.591225     -191.937836      -65.316422
 C         -71.012474     -190.145477      -65.586304
 C         -72.045860     -191.223114      -65.669464
 C         -71.036415     -189.082947      -64.481049
 C         -73.355019     -190.860718      -64.919266
 C         -72.175453     -189.144501      -63.466984
 C         -73.067001     -190.418396      -63.523891
 H         -71.546120     -192.085175      -65.030190
 H         -72.294930     -191.519806      -66.675583
 H         -70.082634     -189.211395      -63.829128
 H         -71.134941     -188.113449      -64.979408
 H         -74.110870     -191.700119      -64.850769
 H         -73.969704     -190.120590      -65.418449
 H         -72.865768     -188.315659      -63.471928
 H         -71.924942     -188.999039      -62.372967
 H         -72.518089     -191.264969      -62.964264
 H         -74.019798     -190.237122      -63.118656
