20
 generated by VMD
 C         -38.711338      -98.718842      -27.720394
 N         -38.431610      -99.816895      -27.454445
 H         -37.559231      -97.434891      -30.888117
 H         -38.792030      -97.634254      -28.086817
 C         -36.456451      -97.646149      -30.854259
 C         -35.595226      -98.203613      -31.989634
 C         -35.718601      -97.305840      -29.583426
 C         -34.332993      -97.339996      -32.261726
 C         -34.503357      -96.439400      -29.822838
 C         -33.587372      -96.887360      -31.072096
 H         -36.233864      -98.218742      -32.831306
 H         -35.408218      -99.252029      -31.692659
 H         -36.381466      -96.762596      -28.947172
 H         -35.487888      -98.262787      -29.022072
 H         -34.699635      -96.512856      -32.864651
 H         -33.715893      -97.878197      -32.862793
 H         -33.876743      -96.228485      -28.942152
 H         -34.913383      -95.418434      -30.100224
 H         -32.816227      -96.008034      -31.375004
 H         -33.029652      -97.748909      -30.790678
