20
 generated by VMD
 C          -1.645676      -13.897666        1.244754
 N          -1.856940      -12.824288        1.484780
 H          -3.843156      -17.173891        1.788693
 H          -4.017530      -17.120193       -0.016304
 C          -4.539175      -17.116835        0.932721
 C          -5.133882      -15.746234        1.103811
 C          -5.600536      -18.229845        0.887436
 C          -6.341340      -15.475516        0.223710
 C          -6.821641      -17.968613       -0.026653
 C          -7.408374      -16.552732        0.355572
 H          -4.379061      -15.009291        1.044521
 H          -5.543096      -15.621840        2.140975
 H          -5.154490      -19.154411        0.446864
 H          -5.989163      -18.302031        1.901569
 H          -5.989583      -15.367552       -0.850037
 H          -6.783340      -14.467219        0.453625
 H          -7.624979      -18.759542       -0.025838
 H          -6.416389      -17.921482       -1.077466
 H          -8.329069      -16.370935       -0.224684
 H          -7.750835      -16.600790        1.393801
