20
 generated by VMD
 C         -50.208363     -130.825348      -45.595387
 N         -50.725903     -129.904816      -45.918541
 H         -47.423576     -132.325500      -44.344952
 H         -49.483284     -131.490677      -45.128853
 C         -48.119907     -132.296494      -43.465019
 C         -48.600025     -133.550537      -42.862297
 C         -48.382618     -130.997192      -42.802803
 C         -47.958622     -133.586502      -41.482243
 C         -47.839703     -131.016846      -41.352921
 C         -48.394241     -132.346725      -40.607540
 H         -48.135269     -134.407394      -43.482243
 H         -49.666153     -133.723343      -42.707077
 H         -47.923199     -130.277908      -43.461536
 H         -49.561275     -130.785278      -42.784290
 H         -46.838795     -133.659042      -41.559032
 H         -48.294510     -134.556107      -40.966354
 H         -48.130348     -130.223450      -40.606876
 H         -46.794945     -131.019714      -41.240982
 H         -47.887344     -132.286301      -39.666473
 H         -49.557659     -132.349915      -40.565041
