20
 generated by VMD
 C         -77.306549     -203.475082      -67.260101
 N         -77.995743     -204.388367      -66.970818
 H         -75.063271     -201.062698      -67.803009
 H         -76.771942     -202.700363      -67.775917
 C         -74.650803     -200.454834      -68.632713
 C         -74.923058     -198.894791      -68.641907
 C         -73.854263     -201.180923      -69.647606
 C         -73.713348     -198.150787      -69.470352
 C         -72.786560     -200.395294      -70.399048
 C         -73.370461     -198.893448      -70.708313
 H         -74.875191     -198.420853      -67.690018
 H         -75.931602     -198.681549      -69.016960
 H         -73.301346     -202.072189      -69.101936
 H         -74.499817     -201.623199      -70.425034
 H         -72.857750     -198.094177      -68.816330
 H         -73.997658     -197.121902      -69.677299
 H         -72.364243     -200.771088      -71.290840
 H         -72.078979     -200.241837      -69.665245
 H         -72.579742     -198.369156      -71.215012
 H         -74.227333     -199.085785      -71.305626
