20
 generated by VMD
 C         -20.205143      -57.300098      -16.783340
 N         -19.197792      -57.258953      -17.288017
 H         -22.584686      -59.549847      -17.457735
 H         -21.309877      -57.192951      -16.423691
 C         -22.493683      -60.410118      -16.713167
 C         -23.803892      -60.970757      -16.249895
 C         -21.109787      -60.915920      -16.277943
 C         -23.653065      -61.845623      -14.992675
 C         -21.225540      -62.137154      -15.440622
 C         -22.367676      -62.454971      -14.480968
 H         -24.216789      -61.577213      -17.077162
 H         -24.480099      -60.089325      -16.038042
 H         -20.566309      -61.125977      -17.228956
 H         -20.536640      -60.119911      -15.814262
 H         -24.332033      -62.710644      -15.088406
 H         -24.275789      -61.357143      -14.183061
 H         -20.309153      -62.264214      -14.810564
 H         -21.171509      -62.856487      -16.231283
 H         -22.368261      -63.540932      -14.335883
 H         -22.034262      -62.081169      -13.504665
