20
 generated by VMD
 C          -1.976907      -15.613967        1.793279
 N          -1.685360      -15.301756        2.830221
 H          -4.046628      -16.246742        0.167258
 H          -4.644209      -17.190138       -1.194069
 C          -4.911612      -16.772753       -0.252760
 C          -6.033399      -15.701807       -0.421504
 C          -5.293328      -17.828957        0.787441
 C          -7.318120      -16.397137       -0.883855
 C          -6.587496      -18.534266        0.306635
 C          -7.761488      -17.616045       -0.022935
 H          -5.777718      -14.992948       -1.197747
 H          -6.153963      -15.065302        0.477784
 H          -4.498744      -18.597124        0.826563
 H          -5.458291      -17.463419        1.798355
 H          -7.240749      -16.759100       -1.924534
 H          -8.133566      -15.602001       -0.962958
 H          -6.816685      -19.256227        1.084632
 H          -6.317242      -19.148247       -0.614772
 H          -8.609377      -18.113367       -0.516020
 H          -8.129131      -17.249542        0.934583
