20
 generated by VMD
 C         -69.788902     -180.482864      -61.439323
 N         -69.163673     -180.791885      -62.378677
 H         -66.885178     -179.964172      -59.394318
 H         -70.444000     -180.123947      -60.663040
 C         -66.256859     -179.224472      -59.738667
 C         -65.505646     -179.532684      -60.950397
 C         -65.749565     -178.141403      -58.878300
 C         -65.277176     -178.230713      -61.706604
 C         -65.767624     -176.846619      -59.742970
 C         -64.700531     -177.004578      -60.849277
 H         -66.051765     -180.317154      -61.530327
 H         -64.526711     -179.980957      -60.560974
 H         -66.540680     -177.991226      -58.187511
 H         -64.796860     -178.322845      -58.252823
 H         -66.135391     -177.760941      -62.157295
 H         -64.495033     -178.372650      -62.475559
 H         -65.567657     -176.057220      -58.984390
 H         -66.732979     -176.543915      -60.111698
 H         -64.568031     -176.067490      -61.411240
 H         -63.769920     -177.326050      -60.338802
