20
 generated by VMD
 C          -1.882365       -8.595390        0.361468
 N          -2.131700       -9.145002       -0.549259
 H          -2.780060      -10.153016        2.522106
 H          -1.981644      -11.099163        3.650038
 C          -2.872216      -11.124296        3.048410
 C          -2.920310      -12.207199        1.999185
 C          -4.105091      -11.132210        3.984284
 C          -3.264349      -13.574419        2.571961
 C          -4.359267      -12.571853        4.587914
 C          -4.536781      -13.485265        3.418552
 H          -2.006036      -12.122802        1.393170
 H          -3.670479      -11.824072        1.274291
 H          -3.992575      -10.423078        4.844453
 H          -5.059765      -10.828129        3.391483
 H          -2.382903      -13.969069        3.105002
 H          -3.366354      -14.293405        1.712930
 H          -5.256990      -12.477441        5.208948
 H          -3.492719      -12.891489        5.202081
 H          -4.918672      -14.446169        3.661307
 H          -5.241508      -13.095804        2.701823
