20
 generated by VMD
 C         -31.152775      -79.599655      -26.190685
 N         -30.845562      -78.466522      -26.346216
 H         -28.735538      -81.173027      -25.400816
 H         -31.303255      -80.663933      -26.288454
 C         -28.890203      -81.707458      -24.453497
 C         -27.863382      -81.611542      -23.358213
 C         -29.933647      -82.752319      -24.211771
 C         -28.511671      -81.311882      -22.080587
 C         -30.581808      -82.393845      -22.885086
 C         -29.531542      -82.348473      -21.797850
 H         -27.234743      -80.752350      -23.650969
 H         -27.307297      -82.585449      -23.474535
 H         -30.689919      -82.750717      -25.030281
 H         -29.553074      -83.774048      -24.189793
 H         -29.122572      -80.370499      -21.989573
 H         -27.728874      -81.146774      -21.391577
 H         -31.334078      -83.125244      -22.683966
 H         -31.095272      -81.372543      -22.890566
 H         -29.956955      -82.143547      -20.778679
 H         -29.047384      -83.376038      -21.567781
