20
 generated by VMD
 C         -50.101841     -144.791168      -44.431580
 N         -49.346561     -143.964905      -44.767170
 H         -52.429276     -142.213699      -45.831966
 H         -50.803982     -145.567917      -44.298721
 C         -53.087029     -142.231689      -46.717278
 C         -52.432293     -142.306076      -47.969021
 C         -54.539700     -141.655319      -46.536964
 C         -53.289860     -142.669052      -49.164600
 C         -55.361435     -142.096497      -47.724197
 C         -54.554741     -141.814865      -49.062729
 H         -51.720440     -143.120377      -47.768654
 H         -51.750397     -141.450317      -48.285324
 H         -54.959633     -141.952881      -45.555931
 H         -54.452908     -140.447052      -46.432865
 H         -53.644520     -143.777191      -49.388519
 H         -52.539230     -142.400131      -49.982929
 H         -56.328911     -141.591904      -47.767879
 H         -55.513340     -143.232407      -47.649441
 H         -55.222488     -141.922211      -50.016376
 H         -54.255192     -140.656021      -48.955311
