20
 generated by VMD
 C         -41.079506     -104.450127      -36.085075
 N         -42.045849     -104.993866      -36.437950
 H         -38.351101     -104.056992      -33.320889
 H         -40.018265     -104.251663      -35.815819
 C         -38.187473     -105.068733      -32.924206
 C         -36.938320     -105.554482      -32.259060
 C         -39.166557     -106.197128      -33.321095
 C         -37.331200     -106.659241      -31.149538
 C         -39.386650     -107.339241      -32.253452
 C         -38.169571     -107.917625      -31.667860
 H         -36.433159     -104.769699      -31.701853
 H         -36.267200     -105.989677      -33.008614
 H         -40.110165     -105.835808      -33.635803
 H         -38.686398     -106.476707      -34.305946
 H         -37.729546     -106.218918      -30.163855
 H         -36.382187     -107.121506      -30.820814
 H         -39.985092     -108.061638      -32.815624
 H         -40.064980     -107.019211      -31.374969
 H         -38.361774     -108.637482      -30.776073
 H         -37.629185     -108.449707      -32.405605
