20
 generated by VMD
 C         -39.614819     -105.545967      -37.055702
 N         -40.502529     -106.241379      -37.352482
 H         -38.963715     -107.928497      -35.073860
 H         -38.677567     -104.998398      -36.809113
 C         -39.264473     -108.608543      -34.316586
 C         -38.391773     -108.974861      -33.211071
 C         -40.702209     -109.156914      -34.363018
 C         -39.073380     -109.165977      -31.857233
 C         -41.320515     -109.392647      -33.006569
 C         -40.342480     -109.970703      -32.068359
 H         -37.672375     -108.207504      -33.199512
 H         -37.933270     -109.893829      -33.577911
 H         -41.350277     -108.446274      -34.923840
 H         -40.621975     -109.946587      -35.063457
 H         -39.309074     -108.126289      -31.515882
 H         -38.390862     -109.571075      -31.070263
 H         -42.231480     -110.022308      -33.106880
 H         -41.852497     -108.475739      -32.511387
 H         -40.845470     -110.064644      -31.200659
 H         -40.164921     -111.042458      -32.443588
