20
 generated by VMD
 C         -80.392555     -205.569977      -72.107399
 N         -79.950058     -206.676819      -72.132973
 H         -76.984924     -204.486877      -72.095406
 H         -80.656418     -204.551346      -72.344032
 C         -76.312485     -204.749161      -71.263794
 C         -75.069412     -203.866364      -71.224144
 C         -76.242798     -206.096222      -70.626289
 C         -74.505585     -203.781784      -69.830750
 C         -75.585869     -206.033997      -69.230621
 C         -74.323715     -205.188248      -69.295509
 H         -75.317627     -202.864975      -71.564301
 H         -74.289574     -204.223907      -71.930290
 H         -77.176483     -206.616913      -70.324188
 H         -75.715591     -206.896667      -71.248108
 H         -75.266037     -203.311615      -69.217430
 H         -73.586906     -203.203735      -70.033089
 H         -75.432533     -207.163757      -69.039757
 H         -76.241936     -205.674683      -68.379738
 H         -73.751984     -205.230133      -68.336914
 H         -73.827469     -205.739243      -70.077316
