20
 generated by VMD
 C         -10.606307      -40.103256       -6.996764
 N         -11.398370      -40.234947       -6.194873
 H         -13.644235      -40.568176       -9.036860
 H         -15.214150      -40.001827       -9.437447
 C         -14.653022      -40.879848       -9.258872
 C         -15.422686      -41.536057       -8.103931
 C         -14.615497      -41.782700      -10.500676
 C         -16.778070      -42.173431       -8.588802
 C         -16.022667      -42.130341      -11.028302
 C         -16.795551      -42.908028       -9.919620
 H         -15.686530      -40.833858       -7.282176
 H         -14.812063      -42.292229       -7.616706
 H         -14.053143      -41.275177      -11.300654
 H         -13.943524      -42.644871      -10.290891
 H         -17.509222      -41.365482       -8.649682
 H         -17.314608      -42.752796       -7.790737
 H         -16.053194      -42.717682      -12.008128
 H         -16.550646      -41.199486      -11.126129
 H         -17.840710      -43.015076      -10.250140
 H         -16.256590      -43.854603       -9.779000
