20
 generated by VMD
 C         -30.179976      -74.081238      -20.733578
 N         -30.020306      -75.184219      -20.371809
 H         -27.052027      -74.569031      -19.245579
 H         -30.475605      -73.131409      -21.020094
 C         -26.706621      -74.358139      -20.245369
 C         -26.099470      -75.515633      -20.955059
 C         -25.963022      -73.021713      -20.418625
 C         -26.009499      -75.188477      -22.475433
 C         -25.927542      -72.736885      -21.862055
 C         -25.242434      -73.814804      -22.613771
 H         -26.817932      -76.368927      -20.933847
 H         -25.140766      -75.850235      -20.565622
 H         -26.580011      -72.338966      -19.792103
 H         -24.918457      -73.100380      -19.895838
 H         -27.020187      -75.258713      -22.857662
 H         -25.399527      -75.939766      -23.007807
 H         -25.198166      -71.864212      -21.927864
 H         -26.825405      -72.263229      -22.213591
 H         -25.270302      -73.553360      -23.658026
 H         -24.206442      -73.820862      -22.270144
