20
 generated by VMD
 C         -59.916443     -152.124237      -50.147823
 N         -58.853939     -152.625702      -50.117821
 H         -56.733223     -151.023026      -48.762314
 H         -60.866554     -151.648285      -50.069935
 C         -55.711952     -150.686386      -48.961483
 C         -54.784237     -151.725967      -49.742397
 C         -55.365356     -149.229843      -49.181767
 C         -54.360775     -151.251770      -51.085629
 C         -54.870155     -148.812958      -50.651531
 C         -53.786205     -149.931976      -51.084564
 H         -55.234581     -152.743668      -49.912865
 H         -53.983612     -151.786682      -49.103802
 H         -56.077503     -148.520920      -48.852596
 H         -54.521984     -149.024704      -48.481483
 H         -55.317467     -151.244370      -51.573898
 H         -53.683704     -151.985443      -51.580818
 H         -54.320316     -147.912140      -50.653202
 H         -55.645119     -148.726196      -51.446854
 H         -53.327045     -149.741531      -52.029831
 H         -52.849659     -149.871735      -50.341290
