20
 generated by VMD
 C         -59.968937     -156.690125      -55.854061
 N         -60.978958     -156.141235      -56.222183
 H         -59.707027     -157.753021      -53.064640
 H         -59.116421     -157.274612      -55.546291
 C         -58.711056     -157.993011      -52.898273
 C         -57.658840     -156.965393      -52.487366
 C         -58.621010     -159.410110      -52.448456
 C         -57.360535     -157.071136      -51.060863
 C         -58.304245     -159.400391      -50.949062
 C         -57.129078     -158.442871      -50.624329
 H         -57.913788     -155.972763      -52.771149
 H         -56.822510     -157.362656      -53.159737
 H         -59.509830     -160.039322      -52.496761
 H         -57.877308     -159.855927      -53.075279
 H         -58.036636     -156.585190      -50.334202
 H         -56.538723     -156.506348      -50.786297
 H         -58.195293     -160.392242      -50.455357
 H         -59.296646     -158.972382      -50.402157
 H         -56.960785     -158.407471      -49.457958
 H         -56.197182     -158.750580      -50.916157
