20
 generated by VMD
 C         -73.891129     -200.513443      -65.593964
 N         -73.041954     -201.123215      -65.075394
 H         -73.132355     -197.875610      -66.506493
 H         -74.616783     -199.915894      -66.051308
 C         -73.502350     -197.376007      -67.406013
 C         -74.011719     -195.987640      -67.283997
 C         -72.896156     -197.758881      -68.741432
 C         -73.738319     -195.160721      -68.526794
 C         -73.753502     -197.398453      -69.900322
 C         -74.201477     -195.870590      -69.821915
 H         -73.468613     -195.632919      -66.489075
 H         -75.122597     -195.790344      -67.068253
 H         -71.883888     -197.300949      -68.846436
 H         -72.654663     -198.865631      -68.716843
 H         -72.704117     -194.870834      -68.571663
 H         -74.290955     -194.215485      -68.348633
 H         -74.710197     -197.956406      -69.792656
 H         -73.282394     -197.529099      -70.894218
 H         -73.696640     -195.277817      -70.660645
 H         -75.200302     -195.705826      -69.928070
