20
 generated by VMD
 C         -58.901703     -158.991852      -57.847118
 N         -58.462654     -160.064819      -57.642540
 H         -58.673492     -161.523392      -54.971989
 H         -59.363335     -158.042068      -58.069595
 C         -59.300259     -161.536255      -54.074100
 C         -58.786709     -161.908340      -52.673641
 C         -60.774685     -161.924454      -54.340355
 C         -59.900005     -161.624664      -51.597168
 C         -61.814846     -161.933685      -53.164024
 C         -61.216778     -162.400818      -51.820541
 H         -57.778835     -161.370010      -52.555561
 H         -58.467117     -162.973083      -52.542873
 H         -61.105518     -161.419632      -55.209915
 H         -60.794479     -163.067398      -54.577877
 H         -60.036289     -160.636536      -51.521763
 H         -59.375084     -161.923447      -50.635605
 H         -62.598724     -162.722672      -53.421722
 H         -62.284344     -160.887177      -53.040627
 H         -61.874374     -162.421921      -50.893841
 H         -60.974876     -163.506653      -51.989510
