20
 generated by VMD
 C         -63.285984     -174.835571      -55.192665
 N         -62.734993     -174.324402      -56.071945
 H         -65.030182     -173.334274      -57.743694
 H         -63.828346     -175.390915      -54.435524
 C         -64.708130     -172.454437      -58.302654
 C         -64.642258     -171.160767      -57.494453
 C         -64.442719     -172.494415      -59.802738
 C         -64.004677     -169.955124      -58.151093
 C         -63.671963     -171.284607      -60.321442
 C         -64.116516     -169.853546      -59.782188
 H         -64.265144     -171.420044      -56.562168
 H         -65.791885     -171.050400      -57.258064
 H         -63.791759     -173.343842      -59.907211
 H         -65.370186     -172.607407      -60.230213
 H         -62.821568     -169.969330      -57.979515
 H         -64.338257     -168.980820      -57.677589
 H         -63.742771     -171.255402      -61.436687
 H         -62.613045     -171.387192      -60.078911
 H         -63.546169     -168.965012      -60.185696
 H         -65.201012     -169.643799      -59.958572
