20
 generated by VMD
 C         -51.181068     -130.761963      -46.360332
 N         -50.351212     -130.402008      -47.013046
 H         -48.236454     -132.073166      -44.490551
 H         -51.609055     -131.105255      -45.488140
 C         -48.076607     -132.349518      -43.461819
 C         -48.642841     -133.727570      -42.979763
 C         -48.119026     -131.234116      -42.361092
 C         -48.321033     -134.109741      -41.552383
 C         -47.893688     -131.800888      -40.947624
 C         -48.647667     -133.059402      -40.556400
 H         -48.295341     -134.636124      -43.624973
 H         -49.679279     -133.588577      -43.020401
 H         -47.447216     -130.455994      -42.578049
 H         -49.166222     -131.003937      -42.502880
 H         -47.244007     -134.315720      -41.502125
 H         -48.852417     -135.059036      -41.285885
 H         -48.103001     -130.964844      -40.285469
 H         -46.849506     -131.943680      -40.741856
 H         -48.364994     -133.323166      -39.576496
 H         -49.690582     -132.686951      -40.644398
