20
 generated by VMD
 C         -66.797005     -190.023529      -66.844292
 N         -67.565002     -190.144592      -66.014305
 H         -70.454948     -190.810562      -66.380043
 H         -66.008469     -190.101898      -67.518768
 C         -71.129646     -190.465210      -65.580727
 C         -72.407234     -191.030914      -65.173500
 C         -70.503273     -189.519211      -64.660690
 C         -73.255356     -190.370148      -64.122650
 C         -71.504509     -188.486160      -64.005257
 C         -72.432518     -189.314743      -63.107674
 H         -72.166565     -192.040268      -64.764427
 H         -72.935127     -191.417053      -65.964912
 H         -70.059166     -190.016342      -63.780304
 H         -69.737587     -188.989944      -65.045570
 H         -73.849098     -191.127441      -63.533276
 H         -74.037910     -189.825623      -64.670654
 H         -72.089821     -187.950943      -64.742523
 H         -70.910614     -187.838058      -63.323792
 H         -71.923889     -190.041763      -62.418800
 H         -72.979225     -188.678497      -62.537144
