20
 generated by VMD
 C         -47.942440     -134.389618      -47.342251
 N         -48.024990     -133.731155      -48.275532
 H         -49.638947     -134.377701      -44.339161
 H         -47.899067     -134.977249      -46.391552
 C         -50.264206     -135.150070      -43.936508
 C         -50.556076     -136.344025      -44.802044
 C         -51.161655     -134.943344      -42.666656
 C         -50.767902     -137.620041      -44.059704
 C         -51.360828     -136.223022      -41.947987
 C         -51.694641     -137.430099      -42.850613
 H         -49.708378     -136.314987      -45.365993
 H         -51.357773     -136.004715      -45.500572
 H         -50.920139     -134.160889      -41.973515
 H         -52.068470     -134.750778      -43.187710
 H         -49.778633     -138.025269      -43.784229
 H         -51.244690     -138.407333      -44.720818
 H         -52.218575     -136.047531      -41.260300
 H         -50.492039     -136.636826      -41.320114
 H         -51.609566     -138.357880      -42.168072
 H         -52.658524     -137.220932      -43.246220
