20
 generated by VMD
 C         -28.474026      -74.116745      -18.509348
 N         -29.271696      -73.415520      -17.993662
 H         -25.198782      -72.205498      -18.868155
 H         -27.689123      -74.830826      -18.983053
 C         -25.509577      -72.100418      -19.881155
 C         -24.853794      -73.274948      -20.599955
 C         -25.648899      -70.779228      -20.512596
 C         -25.191317      -73.351418      -22.112595
 C         -26.338799      -70.965843      -21.861916
 C         -25.559658      -71.971039      -22.798592
 H         -25.195431      -74.251633      -20.083118
 H         -23.808187      -73.203171      -20.506092
 H         -26.306707      -70.143456      -19.918941
 H         -24.678699      -70.223236      -20.564657
 H         -25.992849      -74.091072      -22.216766
 H         -24.322771      -73.798164      -22.607044
 H         -26.478411      -70.000122      -22.319279
 H         -27.348858      -71.235733      -21.897337
 H         -26.143011      -72.346176      -23.748199
 H         -24.654644      -71.405518      -23.127819
