20
 generated by VMD
 C         -24.807119      -70.260040      -16.431374
 N         -24.884941      -70.852180      -15.443404
 H         -23.707983      -68.096581      -18.773407
 H         -24.508991      -69.764053      -17.287371
 C         -24.367104      -68.435883      -19.614460
 C         -23.732571      -69.148445      -20.821568
 C         -25.824789      -68.066597      -19.619175
 C         -24.817064      -70.123428      -21.393652
 C         -26.700745      -69.167282      -20.209496
 C         -26.255516      -69.595512      -21.587313
 H         -23.005510      -69.837364      -20.611383
 H         -23.511292      -68.311890      -21.528429
 H         -26.064396      -67.816895      -18.601536
 H         -26.071173      -67.186417      -20.050888
 H         -24.981371      -70.932800      -20.625887
 H         -24.600882      -70.754562      -22.220787
 H         -27.726068      -68.841248      -20.168613
 H         -26.543201      -69.895973      -19.430347
 H         -26.843084      -70.438934      -21.924330
 H         -26.129591      -68.786026      -22.293558
