20
 generated by VMD
 C         -22.511316      -68.334312      -16.647427
 N         -22.414728      -68.807961      -15.601860
 H         -24.197268      -66.084396      -18.236916
 H         -22.744150      -67.976646      -17.596117
 C         -24.630056      -66.632874      -19.038330
 C         -24.053711      -67.349411      -20.146803
 C         -26.094879      -66.679695      -19.112637
 C         -24.447311      -68.785004      -20.402317
 C         -26.552725      -68.159981      -19.180819
 C         -26.026430      -68.823563      -20.445875
 H         -22.956423      -67.305061      -19.980894
 H         -24.357378      -66.851807      -21.035732
 H         -26.529406      -66.251991      -18.182606
 H         -26.669685      -66.123833      -19.936266
 H         -24.024214      -69.364098      -19.592649
 H         -23.968685      -69.054298      -21.378254
 H         -27.633085      -68.366928      -19.246464
 H         -26.230412      -68.712532      -18.279697
 H         -26.364550      -69.891846      -20.443377
 H         -26.296972      -68.290382      -21.375046
