20
 generated by VMD
 C         -58.843269     -152.581390      -50.654507
 N         -59.877136     -152.928787      -50.361809
 H         -56.861649     -151.394119      -48.590408
 H         -57.958244     -152.117554      -51.007767
 C         -56.196613     -151.154510      -49.393913
 C         -55.452263     -152.268112      -50.081490
 C         -55.685349     -149.718536      -49.414219
 C         -54.576210     -151.809204      -51.152039
 C         -54.774845     -149.377090      -50.577732
 C         -53.786926     -150.496445      -50.837566
 H         -56.164318     -153.000916      -50.484947
 H         -54.854664     -152.816635      -49.337616
 H         -56.491432     -148.982895      -49.506229
 H         -55.176731     -149.470993      -48.527481
 H         -55.275673     -151.484024      -51.965069
 H         -53.867706     -152.586716      -51.498596
 H         -54.239330     -148.354355      -50.417793
 H         -55.229443     -149.115158      -51.552238
 H         -53.229118     -150.296906      -51.803791
 H         -53.080826     -150.663025      -50.025703
