20
 generated by VMD
 C         -19.294165      -62.563450      -17.388334
 N         -20.225895      -62.502686      -16.715845
 H         -22.273247      -64.459038      -16.768559
 H         -18.387720      -62.822598      -18.009876
 C         -23.317743      -64.535103      -17.168756
 C         -23.677155      -64.086250      -18.526609
 C         -24.372677      -65.101013      -16.277504
 C         -24.603045      -65.148468      -19.152754
 C         -25.137894      -66.299324      -16.861158
 C         -25.672630      -65.785751      -18.235922
 H         -22.969038      -63.730118      -19.262945
 H         -24.248901      -63.128620      -18.457592
 H         -23.893206      -65.370323      -15.410384
 H         -24.942799      -64.247299      -16.030996
 H         -24.007292      -66.003632      -19.466295
 H         -25.205805      -64.736450      -20.015247
 H         -25.876324      -66.765900      -16.193920
 H         -24.408354      -67.124718      -17.133869
 H         -26.157236      -66.661919      -18.737576
 H         -26.443426      -64.961189      -18.071657
