20
 generated by VMD
 C         -30.347565      -74.140030      -20.773573
 N         -30.111559      -75.219704      -20.423336
 H         -27.378124      -74.570496      -19.361309
 H         -30.365213      -73.140007      -21.302553
 C         -26.630661      -74.452522      -20.151909
 C         -26.158098      -75.600677      -20.985317
 C         -25.967167      -73.026360      -20.390924
 C         -26.020824      -75.200882      -22.543406
 C         -25.878111      -72.775757      -21.848461
 C         -25.157562      -73.901718      -22.654633
 H         -26.966629      -76.484444      -21.069101
 H         -25.191994      -75.967636      -20.655645
 H         -26.619875      -72.351646      -19.858292
 H         -24.918989      -73.070923      -19.823988
 H         -26.998375      -75.164673      -23.003218
 H         -25.477968      -75.990601      -23.038424
 H         -25.358450      -71.752548      -22.048859
 H         -26.906218      -72.415489      -22.155251
 H         -25.016422      -73.670723      -23.678202
 H         -24.156410      -73.980858      -22.239517
