20
 generated by VMD
 C         -60.273228     -156.227081      -56.116371
 N         -60.751926     -155.224258      -55.747932
 H         -59.684944     -157.929611      -52.891956
 H         -59.819305     -157.139038      -56.500595
 C         -58.827183     -157.866409      -52.322056
 C         -58.191463     -156.569992      -52.268723
 C         -58.145996     -159.089737      -51.808121
 C         -57.239960     -156.377304      -51.178528
 C         -57.327991     -158.833115      -50.478935
 C         -56.405384     -157.625854      -50.820110
 H         -58.819424     -155.684799      -52.359280
 H         -57.679958     -156.363968      -53.217491
 H         -58.823135     -159.883621      -51.534657
 H         -57.523384     -159.501785      -52.626041
 H         -57.822922     -156.055725      -50.362286
 H         -56.552307     -155.549133      -51.416191
 H         -56.709251     -159.656418      -50.286297
 H         -57.937309     -158.550537      -49.680122
 H         -55.825520     -157.466278      -49.965725
 H         -55.738804     -157.929611      -51.690941
