20
 generated by VMD
 C         -73.845772     -201.552658      -65.329979
 N         -72.839973     -201.074905      -65.604752
 H         -75.026207     -198.138702      -66.881157
 H         -74.844833     -201.833374      -64.940964
 C         -74.698929     -197.601364      -67.785919
 C         -74.705902     -196.088104      -67.818253
 C         -74.040276     -198.395615      -68.804733
 C         -73.497917     -195.410904      -68.539963
 C         -73.688744     -197.566620      -70.055084
 C         -72.828537     -196.305359      -69.543716
 H         -74.812599     -195.425873      -66.889740
 H         -75.575050     -195.814590      -68.286736
 H         -73.147690     -198.909866      -68.331512
 H         -74.732346     -199.270477      -69.072464
 H         -72.706696     -195.199493      -67.781876
 H         -73.673996     -194.482697      -69.040833
 H         -74.603867     -197.339722      -70.566460
 H         -73.015350     -198.188126      -70.632500
 H         -71.868286     -196.618912      -69.249405
 H         -72.787643     -195.653656      -70.494743
