20
 generated by VMD
 C         -58.135601     -167.618668      -55.351746
 N         -57.077396     -168.003082      -55.008091
 H         -61.685982     -166.908936      -55.011024
 H         -59.143909     -167.184509      -55.511112
 C         -61.937241     -166.275925      -55.852154
 C         -62.231159     -166.964371      -57.187435
 C         -62.757969     -165.005753      -55.708515
 C         -63.754429     -167.420456      -57.123661
 C         -64.235336     -165.327133      -55.636829
 C         -64.682335     -166.151459      -56.875092
 H         -61.637264     -167.902130      -57.325706
 H         -62.113869     -166.404175      -58.130959
 H         -62.550922     -164.497360      -54.741066
 H         -62.509514     -164.383560      -56.497879
 H         -63.721977     -167.999527      -56.248810
 H         -64.076057     -168.022598      -57.980228
 H         -64.958984     -164.407333      -55.586903
 H         -64.493607     -166.009933      -54.817146
 H         -65.735725     -166.546921      -56.816494
 H         -64.663498     -165.508423      -57.837448
