20
 generated by VMD
 C         -68.385422     -185.440796      -66.159019
 N         -69.248352     -185.924606      -66.771210
 H         -69.471313     -183.268631      -63.877373
 H         -67.604248     -184.944305      -65.624733
 C         -69.195694     -183.897522      -62.993427
 C         -70.286057     -184.659103      -62.340763
 C         -67.864830     -183.702499      -62.349167
 C         -69.811020     -185.969650      -61.759438
 C         -67.794655     -184.592712      -61.067345
 C         -68.371017     -185.951035      -61.344505
 H         -71.060120     -184.807861      -63.068130
 H         -70.662880     -183.944214      -61.632076
 H         -67.005005     -183.923676      -62.935631
 H         -67.786583     -182.650955      -61.995510
 H         -70.005371     -186.644669      -62.598923
 H         -70.418350     -186.333771      -60.896233
 H         -68.471062     -184.165131      -60.244373
 H         -66.823143     -184.439987      -60.607147
 H         -67.776207     -186.300766      -62.123184
 H         -68.346085     -186.581924      -60.404968
