20
 generated by VMD
 C         -40.041992     -105.186928      -37.071838
 N         -39.783203     -104.043015      -37.038841
 H         -40.091244     -107.891586      -34.997761
 H         -40.396175     -106.235558      -37.224655
 C         -39.609215     -108.697449      -34.397339
 C         -38.475380     -108.121796      -33.539066
 C         -40.358032     -109.764847      -33.609314
 C         -38.895409     -107.772507      -32.144173
 C         -40.742626     -109.584106      -32.227818
 C         -39.501156     -109.003036      -31.436010
 H         -38.209061     -107.221588      -33.951611
 H         -37.596119     -108.730453      -33.554020
 H         -41.257870     -109.912270      -34.219379
 H         -39.729305     -110.730522      -33.746223
 H         -39.645855     -106.874527      -32.090057
 H         -38.028484     -107.420525      -31.528679
 H         -41.003746     -110.514442      -31.758720
 H         -41.506607     -108.898094      -32.166840
 H         -39.748669     -108.678322      -30.466135
 H         -38.627071     -109.739670      -31.378963
