20
 generated by VMD
 C         -58.425499     -159.080429      -57.695049
 N         -59.304607     -158.393890      -57.807571
 H         -59.601952     -159.489075      -54.042477
 H         -57.595215     -159.772202      -57.627392
 C         -59.438526     -160.519638      -53.783737
 C         -58.451649     -160.738373      -52.676029
 C         -60.675022     -161.405151      -53.884422
 C         -59.308460     -160.876862      -51.395767
 C         -61.279808     -161.784531      -52.468983
 C         -60.265766     -162.065521      -51.422966
 H         -57.817734     -159.825790      -52.577065
 H         -57.764267     -161.552582      -52.994884
 H         -61.408360     -160.921097      -54.426620
 H         -60.404903     -162.380630      -54.365219
 H         -59.791943     -159.983490      -51.197681
 H         -58.549576     -161.154312      -50.640308
 H         -61.917591     -162.682800      -52.592487
 H         -61.879280     -160.911758      -52.176956
 H         -60.607300     -162.206116      -50.372444
 H         -59.608250     -162.932343      -51.601765
