20
 generated by VMD
 C         -19.762894      -59.917789      -17.033781
 N         -18.851961      -60.660511      -16.908030
 H         -22.981043      -60.817936      -17.236601
 H         -20.513556      -59.141747      -17.307646
 C         -23.215158      -61.839199      -17.134731
 C         -23.925802      -62.713612      -18.088392
 C         -23.413223      -62.309624      -15.706792
 C         -23.806036      -64.316750      -17.832495
 C         -23.132307      -63.798515      -15.451933
 C         -24.151192      -64.509094      -16.324467
 H         -23.490303      -62.586628      -19.084772
 H         -25.077200      -62.556732      -18.006237
 H         -22.723206      -61.709267      -15.154302
 H         -24.488132      -62.060745      -15.402004
 H         -22.799442      -64.640907      -18.060999
 H         -24.524775      -64.943024      -18.394865
 H         -23.238487      -64.076523      -14.367662
 H         -22.058659      -64.106712      -15.495541
 H         -24.231224      -65.569786      -16.043972
 H         -25.233427      -64.205429      -16.183455
