20
 generated by VMD
 C         -12.645150      -26.989645       -2.601566
 N         -12.437737      -27.763697       -1.834951
 H         -10.551827      -26.704990       -4.135150
 H          -9.404656      -25.996775       -5.288014
 C          -9.492774      -26.599813       -4.335597
 C          -8.982713      -28.072403       -4.552013
 C          -8.812895      -25.881273       -3.213938
 C          -7.464813      -28.261265       -4.397311
 C          -7.311219      -26.059099       -3.255543
 C          -6.884204      -27.537756       -3.200183
 H          -9.307677      -28.348667       -5.621773
 H          -9.486723      -28.655260       -3.776545
 H          -8.956784      -24.795147       -3.244801
 H          -9.098992      -26.257566       -2.237173
 H          -6.964740      -27.927290       -5.303712
 H          -7.305154      -29.346199       -4.210093
 H          -6.902959      -25.598402       -2.360249
 H          -6.822320      -25.580780       -4.163510
 H          -5.775116      -27.604591       -3.234201
 H          -7.177679      -28.053186       -2.295617
