20
 generated by VMD
 C         -14.080790      -45.494015       -5.782380
 N         -14.417949      -45.553452       -6.838481
 H         -15.194910      -44.217113       -9.116379
 H         -14.501408      -44.007839      -10.740769
 C         -15.378429      -44.319977      -10.169972
 C         -16.490528      -43.284451      -10.594831
 C         -15.743731      -45.754921      -10.466067
 C         -16.885778      -43.422848      -12.082645
 C         -16.268024      -45.814697      -11.888650
 C         -17.378117      -44.833191      -12.378208
 H         -16.071917      -42.259583      -10.397496
 H         -17.402149      -43.501842       -9.975140
 H         -14.853364      -46.389397      -10.451711
 H         -16.434462      -46.025776       -9.635058
 H         -16.065794      -43.172508      -12.757287
 H         -17.734842      -42.757549      -12.285136
 H         -16.516045      -46.892715      -12.111436
 H         -15.341749      -45.565678      -12.501969
 H         -17.700710      -44.889370      -13.411142
 H         -18.316504      -45.101971      -11.861197
