20
 generated by VMD
 C         -79.693596     -205.376801      -71.135719
 N         -80.232719     -206.352020      -71.451828
 H         -77.405647     -203.088028      -70.420410
 H         -79.093933     -204.474350      -70.776642
 C         -76.365242     -203.304413      -70.290749
 C         -75.205444     -202.310883      -70.388855
 C         -75.963615     -204.768219      -70.061256
 C         -73.839386     -202.885193      -70.535027
 C         -74.633286     -204.821442      -69.223389
 C         -73.421982     -203.996506      -69.544067
 H         -75.284180     -201.684418      -69.533653
 H         -75.396774     -201.698959      -71.319923
 H         -76.772865     -205.210495      -69.531128
 H         -75.711983     -205.252457      -70.942123
 H         -73.133430     -202.093018      -70.330032
 H         -73.576828     -203.248276      -71.540924
 H         -74.345345     -205.923340      -69.334023
 H         -74.848129     -204.601974      -68.180351
 H         -73.231415     -203.629593      -68.512100
 H         -72.522812     -204.525116      -69.827736
