20
 generated by VMD
 C         -12.548017      -30.207205       -7.851095
 N         -13.584908      -29.847727       -7.633216
 H         -11.448321      -30.225788       -4.960281
 H         -10.409110      -30.560358       -3.737108
 C         -10.834635      -31.061079       -4.545525
 C          -9.687529      -31.598150       -5.411829
 C         -11.750789      -32.192425       -4.079660
 C          -8.861175      -32.728222       -4.738441
 C         -10.915443      -33.335510       -3.487635
 C          -9.862500      -33.843235       -4.459332
 H          -9.080955      -30.730646       -5.558933
 H         -10.118729      -31.995821       -6.402006
 H         -12.466268      -31.838060       -3.334579
 H         -12.350571      -32.508274       -4.921961
 H          -8.511799      -32.331978       -3.788555
 H          -8.043022      -33.108681       -5.324491
 H         -11.626004      -34.180035       -3.257905
 H         -10.311833      -33.099991       -2.607892
 H          -9.374620      -34.684990       -4.008385
 H         -10.323105      -34.188694       -5.334588
