20
 generated by VMD
 C         -52.739784     -146.576447      -44.421028
 N         -51.764854     -146.654694      -45.021011
 H         -53.746021     -145.866974      -47.013870
 H         -53.674709     -146.454514      -43.893513
 C         -53.958584     -145.284103      -47.901733
 C         -52.913773     -145.118378      -48.878544
 C         -54.873512     -144.044846      -47.656326
 C         -53.464390     -144.444153      -50.166267
 C         -55.300758     -143.376892      -48.901497
 C         -54.220020     -143.154892      -49.857281
 H         -52.537777     -146.017807      -49.231285
 H         -52.084385     -144.633896      -48.416176
 H         -55.772434     -144.367294      -47.028214
 H         -54.179924     -143.258072      -47.215633
 H         -54.220211     -145.132172      -50.638462
 H         -52.791157     -144.119598      -50.910320
 H         -55.688046     -142.424881      -48.686733
 H         -56.159229     -144.006851      -49.310081
 H         -54.604183     -142.693329      -50.711151
 H         -53.524715     -142.412979      -49.544552
