20
 generated by VMD
 C         -14.591963      -45.461849       -6.305449
 N         -14.529972      -46.197155       -7.133578
 H         -15.267828      -44.152607       -9.031041
 H         -14.470277      -44.342777      -10.683205
 C         -15.420769      -44.363937      -10.119592
 C         -16.407759      -43.351170      -10.708145
 C         -15.960313      -45.790737      -10.241813
 C         -16.856077      -43.587051      -12.194049
 C         -16.197512      -45.994736      -11.718060
 C         -17.227516      -45.048573      -12.361077
 H         -16.108076      -42.306496      -10.598332
 H         -17.317307      -43.528229      -10.145979
 H         -15.221828      -46.603836      -10.006100
 H         -16.872461      -45.874634       -9.642001
 H         -16.074514      -43.214966      -12.877172
 H         -17.706476      -42.924038      -12.374108
 H         -16.637264      -47.032719      -11.827857
 H         -15.251403      -46.051060      -12.275894
 H         -17.337231      -45.278732      -13.469019
 H         -18.224951      -45.314056      -11.919647
