20
 generated by VMD
 C         -27.916487      -72.589081      -17.951975
 N         -28.109404      -73.576279      -17.375923
 H         -24.839275      -71.259087      -18.653486
 H         -27.597189      -71.715652      -18.636980
 C         -25.086718      -71.251175      -19.755510
 C         -24.400553      -72.219475      -20.594549
 C         -25.883837      -70.062889      -20.355526
 C         -25.169756      -72.685600      -21.660894
 C         -26.325356      -70.422409      -21.864500
 C         -25.736725      -71.634445      -22.599909
 H         -24.156340      -73.200699      -19.939974
 H         -23.394125      -71.787292      -20.868874
 H         -26.687099      -69.855110      -19.601812
 H         -25.283634      -69.129906      -20.357811
 H         -26.038385      -73.303017      -21.449106
 H         -24.573874      -73.388916      -22.263849
 H         -26.395586      -69.447807      -22.461178
 H         -27.451368      -70.666740      -21.757471
 H         -26.434803      -71.983734      -23.311440
 H         -24.838066      -71.249306      -23.072670
