20
 generated by VMD
 C         -31.506626      -76.887024      -24.855217
 N         -32.027756      -77.033928      -25.862955
 H         -29.345411      -76.939293      -22.175087
 H         -30.636784      -76.748970      -24.171227
 C         -28.529129      -77.700241      -22.179905
 C         -27.517036      -77.927269      -23.248777
 C         -28.758385      -78.843414      -21.236216
 C         -26.196180      -78.662888      -22.684206
 C         -27.464035      -79.340744      -20.537893
 C         -26.432173      -79.657814      -21.540833
 H         -27.250772      -76.967224      -23.588003
 H         -27.925989      -78.586266      -23.988735
 H         -29.487738      -78.561935      -20.530952
 H         -29.171194      -79.654472      -21.840811
 H         -25.487377      -77.964798      -22.227179
 H         -25.639843      -79.022301      -23.533792
 H         -27.686628      -80.182686      -19.999283
 H         -27.078363      -78.674416      -19.839096
 H         -25.438969      -80.029778      -21.161942
 H         -26.759283      -80.593834      -22.048756
