20
 generated by VMD
 C         -48.349922     -136.083527      -46.085037
 N         -47.153034     -136.138763      -45.964359
 H         -51.483578     -135.167984      -45.950863
 H         -49.348633     -136.076050      -46.547089
 C         -51.629650     -136.114136      -45.357555
 C         -52.269566     -137.331345      -46.010120
 C         -51.427418     -135.976288      -43.890392
 C         -51.870029     -138.616043      -45.294819
 C         -51.072769     -137.378601      -43.293617
 C         -51.916679     -138.537033      -43.718235
 H         -51.746700     -137.269180      -46.944618
 H         -53.384369     -137.239502      -46.159733
 H         -50.616570     -135.167526      -43.682583
 H         -52.431183     -135.630997      -43.522266
 H         -50.926556     -138.969559      -45.746128
 H         -52.544815     -139.516800      -45.513390
 H         -51.080490     -137.255875      -42.222027
 H         -50.011028     -137.658310      -43.525444
 H         -51.368305     -139.395157      -43.320164
 H         -52.848751     -138.467819      -43.308674
