20
 generated by VMD
 C         -38.293083     -109.694214      -36.446911
 N         -37.669739     -108.979111      -35.782295
 H         -41.759457     -111.066628      -37.311783
 H         -39.011772     -110.292206      -36.944042
 C         -41.946503     -111.377861      -36.296780
 C         -42.048481     -112.894691      -36.265213
 C         -42.002407     -110.559166      -35.077339
 C         -41.780743     -113.555862      -34.943226
 C         -41.964695     -111.203636      -33.681759
 C         -42.391037     -112.774513      -33.684853
 H         -41.338165     -113.298767      -36.949215
 H         -43.060814     -113.096420      -36.593533
 H         -41.245872     -109.756866      -35.248314
 H         -42.887547     -109.981293      -35.312119
 H         -40.751011     -113.683731      -34.761341
 H         -42.184311     -114.670845      -34.921917
 H         -42.774879     -110.646866      -33.149212
 H         -41.109364     -110.973190      -33.042381
 H         -42.193825     -113.277885      -32.810455
 H         -43.454258     -112.849449      -33.849220
