20
 generated by VMD
 C         -19.928356      -50.367828      -10.196369
 N         -20.145935      -51.228886       -9.462550
 H         -17.361023      -49.056240      -10.141372
 H         -19.209833      -49.400921      -10.764211
 C         -17.092640      -49.050495      -11.145679
 C         -15.901789      -49.849625      -11.635442
 C         -17.661951      -47.943699      -12.002186
 C         -16.272125      -50.317097      -13.005692
 C         -17.765974      -48.258251      -13.494841
 C         -16.532797      -49.110516      -13.885389
 H         -15.752090      -50.725216      -10.948484
 H         -15.032210      -49.171272      -11.712914
 H         -18.672615      -47.744991      -11.590859
 H         -17.136219      -47.002228      -11.754589
 H         -17.227652      -50.911182      -12.958653
 H         -15.373024      -50.860119      -13.404840
 H         -17.686821      -47.355312      -14.028482
 H         -18.728449      -48.854221      -13.684524
 H         -16.640200      -49.377728      -14.980104
 H         -15.602482      -48.438160      -13.908526
