20
 generated by VMD
 C         -41.487961     -119.915993      -34.121632
 N         -41.794079     -120.746902      -34.844391
 H         -43.476578     -118.826553      -37.050961
 H         -41.260796     -119.229271      -33.268799
 C         -43.896866     -118.620819      -37.984978
 C         -43.064693     -118.503487      -39.163586
 C         -45.218822     -117.946213      -37.954628
 C         -43.898426     -118.659004      -40.454140
 C         -45.973770     -118.263969      -39.180962
 C         -45.239647     -117.932365      -40.535576
 H         -42.359879     -119.294731      -39.244705
 H         -42.684284     -117.424454      -39.136105
 H         -45.792248     -118.433907      -37.176678
 H         -45.089230     -116.907417      -37.689613
 H         -44.210201     -119.713272      -40.433048
 H         -43.305565     -118.607109      -41.376076
 H         -46.884022     -117.751190      -39.278061
 H         -46.214241     -119.345238      -39.084927
 H         -45.673531     -118.272255      -41.442364
 H         -45.015434     -116.897514      -40.612820
