20
 generated by VMD
 C         -27.633112      -81.137787      -27.419024
 N         -28.737654      -81.504196      -27.597301
 H         -30.347586      -83.122025      -25.458668
 H         -26.601412      -80.839859      -27.521244
 C         -30.627359      -83.970215      -24.874128
 C         -30.455021      -84.089348      -23.380997
 C         -31.225245      -85.171951      -25.450241
 C         -31.631943      -84.598755      -22.570772
 C         -32.597301      -85.595917      -24.849077
 C         -32.377754      -85.787262      -23.327723
 H         -30.212719      -83.066200      -23.158306
 H         -29.573681      -84.714851      -23.319151
 H         -31.525366      -85.019989      -26.538525
 H         -30.485186      -85.959106      -25.299545
 H         -32.347775      -83.710899      -22.456909
 H         -31.495453      -84.825417      -21.510624
 H         -33.064564      -86.490768      -25.272730
 H         -33.315956      -84.778809      -25.116619
 H         -33.390198      -85.898277      -22.823017
 H         -31.788683      -86.641014      -23.117266
