20
 generated by VMD
 C         -48.023380     -133.887482      -47.589169
 N         -48.110737     -133.332092      -48.579102
 H         -49.392105     -134.307724      -44.107952
 H         -48.047897     -134.459869      -46.697670
 C         -49.995426     -134.981003      -43.599216
 C         -50.221577     -136.177216      -44.519245
 C         -51.074478     -134.726700      -42.603516
 C         -50.525589     -137.436874      -43.682335
 C         -51.321548     -135.964035      -41.757130
 C         -51.699928     -137.181534      -42.744724
 H         -49.251492     -136.386566      -45.115223
 H         -51.045712     -136.046539      -45.265350
 H         -50.811646     -133.987961      -41.851978
 H         -52.090580     -134.399063      -43.077324
 H         -49.572666     -137.722336      -43.125874
 H         -50.785610     -138.327850      -44.200890
 H         -52.081257     -135.630249      -41.003216
 H         -50.518913     -136.219421      -41.122360
 H         -51.777473     -138.037109      -42.160187
 H         -52.498104     -136.777191      -43.468510
