20
 generated by VMD
 C         -38.283928     -112.749207      -35.992088
 N         -37.563705     -112.210449      -36.689846
 H         -41.340866     -115.074951      -34.880379
 H         -39.072559     -113.100960      -35.284607
 C         -42.112030     -114.675758      -35.430058
 C         -42.004284     -114.500862      -36.878269
 C         -43.096138     -113.790329      -34.725555
 C         -43.387966     -114.861809      -37.418720
 C         -44.494064     -114.009163      -35.417770
 C         -44.437580     -113.869904      -36.866386
 H         -41.322372     -115.165894      -37.446274
 H         -41.787113     -113.454178      -37.259830
 H         -43.136070     -114.205750      -33.710480
 H         -42.719082     -112.715370      -34.783447
 H         -43.506756     -115.943192      -37.099533
 H         -43.343422     -114.931908      -38.523579
 H         -45.230137     -113.314819      -35.046879
 H         -44.692249     -115.055618      -35.118675
 H         -45.486507     -114.153397      -37.237541
 H         -44.359859     -112.834671      -37.139172
