20
 generated by VMD
 C         -19.353388      -63.641724      -16.668859
 N         -20.180994      -62.975338      -17.098223
 H         -22.694073      -64.104149      -17.272816
 H         -18.668331      -64.242172      -15.933796
 C         -23.747923      -64.379410      -17.500719
 C         -24.362785      -64.196365      -18.833799
 C         -24.651516      -65.100914      -16.460930
 C         -24.797264      -65.465042      -19.404226
 C         -24.823652      -66.490501      -16.995380
 C         -25.432833      -66.403244      -18.409210
 H         -23.765572      -63.579269      -19.581844
 H         -25.166975      -63.450706      -18.686728
 H         -24.128492      -65.230042      -15.465483
 H         -25.562544      -64.601677      -16.521727
 H         -23.889849      -66.019356      -19.822754
 H         -25.415819      -65.392441      -20.324360
 H         -25.385773      -67.045364      -16.212160
 H         -23.846588      -66.986839      -17.065527
 H         -25.185032      -67.413200      -18.816696
 H         -26.488298      -66.162537      -18.436459
