20
 generated by VMD
 C          -9.598438      -25.034262        0.647224
 N         -10.623844      -25.483370        0.786571
 H          -6.353905      -23.323387       -0.755171
 H          -7.941209      -22.909977       -1.393183
 C          -6.961660      -23.342628       -1.646437
 C          -7.145672      -24.624912       -2.341468
 C          -6.368632      -22.298195       -2.647869
 C          -8.101027      -24.505257       -3.475256
 C          -7.268705      -22.052870       -3.878265
 C          -7.647107      -23.454256       -4.519614
 H          -7.434647      -25.509523       -1.741092
 H          -6.198496      -24.974108       -2.665665
 H          -6.072504      -21.415987       -2.036876
 H          -5.457779      -22.732761       -3.025046
 H          -9.127013      -24.257563       -3.045815
 H          -8.315503      -25.475805       -3.957297
 H          -6.821161      -21.334513       -4.574204
 H          -8.208856      -21.649605       -3.510466
 H          -8.470516      -23.324945       -5.282578
 H          -6.697901      -23.815174       -4.945723
