20
 generated by VMD
 C         -41.473473     -102.348129      -35.562428
 N         -41.506489     -103.459076      -35.881199
 H         -39.280098     -104.451164      -33.460522
 H         -41.084480     -101.368881      -35.316803
 C         -38.640480     -105.117821      -32.797520
 C         -37.264324     -104.449989      -32.918289
 C         -38.894310     -106.375496      -32.054470
 C         -36.407963     -104.740265      -31.622866
 C         -38.103077     -106.539772      -30.813250
 C         -36.644993     -106.122429      -31.026567
 H         -37.330303     -103.341835      -32.991802
 H         -36.673344     -104.776695      -33.771297
 H         -39.991241     -106.513847      -31.773869
 H         -38.571579     -107.203964      -32.557892
 H         -36.635452     -104.030403      -30.864464
 H         -35.366123     -104.602005      -31.825569
 H         -38.361179     -107.571655      -30.400782
 H         -38.431385     -105.784424      -30.104723
 H         -36.217804     -106.125679      -30.042480
 H         -36.064640     -106.773743      -31.716434
