20
 generated by VMD
 C         -11.326755      -38.937668       -6.513804
 N         -11.879610      -38.710201       -7.431925
 H         -12.681149      -41.449718       -9.074784
 H         -13.728312      -40.276337       -8.355830
 C         -13.732139      -41.194405       -8.872205
 C         -14.487601      -42.218895       -8.077662
 C         -14.377433      -40.899094      -10.221293
 C         -15.902164      -41.657543       -7.843771
 C         -15.921975      -40.608692      -10.141761
 C         -16.618675      -41.583881       -9.221080
 H         -13.999735      -42.389641       -7.122103
 H         -14.510756      -43.237885       -8.469271
 H         -13.906300      -40.036438      -10.701768
 H         -14.203690      -41.662476      -10.997076
 H         -15.873129      -40.675468       -7.410933
 H         -16.469984      -42.235558       -7.085702
 H         -16.359337      -40.777966      -11.124887
 H         -15.969481      -39.527493       -9.821863
 H         -17.635080      -41.249077       -8.984534
 H         -16.653011      -42.593212       -9.713587
