20
 generated by VMD
 C         -18.315950      -50.291328       -9.388684
 N         -19.424625      -50.305161       -9.336319
 H         -16.454268      -47.068649      -10.056447
 H         -17.550117      -48.324181      -10.424223
 C         -16.793053      -47.702755      -10.859553
 C         -15.751705      -48.617271      -11.412321
 C         -17.361065      -46.916161      -12.004434
 C         -16.132120      -49.439323      -12.655998
 C         -18.043556      -47.890060      -12.978493
 C         -17.024265      -48.729149      -13.717046
 H         -15.375042      -49.209564      -10.608232
 H         -14.945758      -47.924149      -11.666568
 H         -18.167120      -46.277287      -11.563212
 H         -16.614447      -46.236805      -12.473273
 H         -16.715862      -50.285374      -12.324318
 H         -15.285451      -49.936550      -13.161100
 H         -18.617104      -47.302055      -13.685632
 H         -18.766117      -48.606674      -12.444756
 H         -17.476225      -49.488232      -14.299653
 H         -16.507862      -48.043884      -14.313210
