20
 generated by VMD
 C         -18.316299      -50.384663       -9.180492
 N         -19.407516      -50.194984       -9.253639
 H         -16.434563      -47.057697      -10.113334
 H         -17.540785      -48.357906      -10.462603
 C         -16.760773      -47.689354      -10.917998
 C         -15.599613      -48.546391      -11.485759
 C         -17.459757      -46.833828      -12.035015
 C         -16.037455      -49.370766      -12.679476
 C         -18.126757      -47.827869      -12.962265
 C         -16.999594      -48.610405      -13.618209
 H         -15.251461      -49.234417      -10.642856
 H         -14.693660      -47.941879      -11.658429
 H         -18.178806      -46.092575      -11.654614
 H         -16.686216      -46.229565      -12.573860
 H         -16.462391      -50.355885      -12.364088
 H         -15.223032      -49.756256      -13.285614
 H         -18.754435      -47.285828      -13.763700
 H         -18.790089      -48.501125      -12.490238
 H         -17.395412      -49.378204      -14.309830
 H         -16.456438      -47.823105      -14.195502
