20
 generated by VMD
 C         -23.084129      -55.212101      -16.853025
 N         -23.552158      -54.872578      -15.782031
 H         -19.355785      -55.320736      -15.491437
 H         -22.588015      -55.883804      -17.534239
 C         -19.345236      -56.202442      -14.931367
 C         -19.721632      -56.090942      -13.455417
 C         -18.388855      -57.333572      -15.125615
 C         -20.549294      -57.303200      -13.101240
 C         -18.924248      -58.675827      -14.616960
 C         -19.850098      -58.642509      -13.429342
 H         -20.289042      -55.119938      -13.238336
 H         -18.879187      -56.036213      -12.689175
 H         -18.246677      -57.476376      -16.216974
 H         -17.423777      -56.908119      -14.815492
 H         -21.471804      -57.314434      -13.717745
 H         -20.818741      -57.305843      -12.060719
 H         -18.108427      -59.405930      -14.564420
 H         -19.546049      -59.092777      -15.353428
 H         -20.673922      -59.385300      -13.547112
 H         -19.219833      -58.926647      -12.602990
