20
 generated by VMD
 C         -32.388683      -95.349030      -25.559937
 N         -33.281998      -95.253441      -24.840734
 H         -34.050385      -94.649681      -27.983173
 H         -31.409698      -95.533699      -26.148787
 C         -34.295444      -93.801987      -28.538280
 C         -35.777870      -93.584450      -28.822439
 C         -33.309345      -93.491730      -29.697386
 C         -36.032455      -92.215401      -29.302643
 C         -33.716503      -92.107430      -30.233974
 C         -35.180729      -91.897308      -30.516293
 H         -36.289936      -93.957123      -27.920208
 H         -36.117035      -94.185509      -29.678633
 H         -32.236176      -93.455399      -29.405005
 H         -33.442741      -94.209389      -30.494879
 H         -35.777332      -91.393494      -28.668911
 H         -37.158798      -92.118149      -29.543896
 H         -33.183136      -91.906364      -31.189051
 H         -33.119015      -91.391380      -29.597980
 H         -35.389355      -90.856552      -30.932638
 H         -35.235241      -92.663277      -31.202366
