20
 generated by VMD
 C         -31.095352      -74.935036      -21.651350
 N         -31.611609      -75.915642      -21.787615
 H         -28.653809      -76.365891      -21.066460
 H         -30.435770      -74.091072      -22.066048
 C         -27.555328      -76.164642      -21.139568
 C         -26.797136      -77.140686      -21.958508
 C         -26.887604      -74.854279      -20.639999
 C         -25.718580      -76.523560      -22.883581
 C         -25.889542      -74.307533      -21.648323
 C         -24.905691      -75.317467      -22.227133
 H         -27.392006      -77.726158      -22.654947
 H         -26.309616      -77.749527      -21.201591
 H         -27.651453      -74.003418      -20.275021
 H         -26.338831      -75.140129      -19.683594
 H         -26.151144      -76.069221      -23.791292
 H         -25.060400      -77.299011      -23.261572
 H         -25.334904      -73.552986      -21.125980
 H         -26.502516      -73.829269      -22.406019
 H         -24.360527      -74.844315      -23.056170
 H         -24.331530      -75.617126      -21.327164
