20
 generated by VMD
 C         -50.783363     -129.627380      -45.398262
 N         -51.432846     -130.464905      -45.802532
 H         -48.699066     -130.519897      -43.783672
 H         -50.031807     -128.903931      -45.415562
 C         -48.151264     -130.738632      -42.807873
 C         -48.263618     -132.108795      -42.142750
 C         -47.831394     -129.554626      -41.933144
 C         -47.087093     -132.406754      -41.204208
 C         -46.602261     -129.828934      -41.095928
 C         -46.799198     -131.100815      -40.339008
 H         -48.382191     -132.692352      -42.983559
 H         -49.273884     -132.102554      -41.562763
 H         -47.569061     -128.601257      -42.550766
 H         -48.728123     -129.303940      -41.368000
 H         -46.255974     -132.761429      -41.784042
 H         -47.351814     -133.221130      -40.509785
 H         -46.515965     -129.138062      -40.281326
 H         -45.599335     -129.692490      -41.682076
 H         -45.876823     -131.393295      -39.815685
 H         -47.686298     -131.185120      -39.730145
