20
 generated by VMD
 C         -70.189774     -181.360931      -62.734749
 N         -71.034622     -180.714737      -63.135860
 H         -67.181099     -181.797882      -60.991505
 H         -69.422539     -181.932480      -62.234497
 C         -66.637459     -180.935867      -60.677296
 C         -65.160316     -181.160172      -60.426071
 C         -67.355698     -179.538666      -60.558002
 C         -64.340744     -179.796768      -60.721569
 C         -66.380196     -178.390701      -61.022758
 C         -65.037125     -178.463867      -60.298645
 H         -64.775223     -181.951309      -61.044327
 H         -64.938469     -181.288956      -59.362068
 H         -68.256439     -179.429855      -61.099449
 H         -67.605270     -179.444977      -59.512993
 H         -64.010147     -179.600204      -61.735378
 H         -63.435219     -179.884842      -60.156944
 H         -66.887657     -177.484955      -60.660164
 H         -66.309464     -178.341492      -62.118725
 H         -64.537766     -177.597610      -60.527020
 H         -65.148544     -178.622864      -59.196198
