20
 generated by VMD
 C         -13.616636      -43.109566       -6.200786
 N         -12.901169      -42.852341       -6.996288
 H         -14.569821      -44.443893       -8.678853
 H         -14.500989      -43.164032       -9.851515
 C         -15.114149      -44.003967       -9.585875
 C         -16.468956      -43.454868       -9.151483
 C         -15.187705      -44.927170      -10.755510
 C         -17.050892      -42.687733      -10.316598
 C         -15.653052      -44.142216      -12.025530
 C         -16.981653      -43.420406      -11.633134
 H         -16.214340      -42.716187       -8.409480
 H         -17.125343      -44.141048       -8.681918
 H         -14.237281      -45.361332      -11.032319
 H         -15.735185      -45.853333      -10.561674
 H         -16.509939      -41.735855      -10.383274
 H         -18.096737      -42.414139      -10.090325
 H         -15.886626      -44.803173      -12.918243
 H         -14.828076      -43.551502      -12.235168
 H         -17.196596      -42.699959      -12.479826
 H         -17.770973      -44.207787      -11.603557
