20
 generated by VMD
 C         -35.209793      -97.909676      -26.200090
 N         -36.316177      -97.573250      -26.197382
 H         -35.716835      -95.111702      -27.898344
 H         -34.206409      -98.191895      -26.390961
 C         -35.352859      -94.960732      -28.893568
 C         -35.738548      -95.801147      -30.060627
 C         -34.107571      -94.276634      -29.030130
 C         -35.530693      -95.136612      -31.423332
 C         -33.874775      -93.601929      -30.368757
 C         -34.121876      -94.641945      -31.534067
 H         -36.837029      -95.915581      -29.985147
 H         -35.290318      -96.859703      -29.936930
 H         -34.188953      -93.511345      -28.223154
 H         -33.217239      -94.879250      -28.808832
 H         -36.261528      -94.387833      -31.580982
 H         -35.809551      -95.954094      -32.125759
 H         -32.920696      -93.149498      -30.545292
 H         -34.709126      -92.913086      -30.377203
 H         -34.110088      -94.116722      -32.525742
 H         -33.289249      -95.520096      -31.631285
