20
 generated by VMD
 C         -68.242676     -195.222672      -65.070900
 N         -68.816948     -196.079803      -64.497063
 H         -71.353523     -194.526642      -66.906448
 H         -67.819733     -194.263290      -65.395401
 C         -72.233299     -193.936218      -67.009605
 C         -72.026482     -192.468384      -66.773788
 C         -73.370926     -194.315094      -67.812286
 C         -73.235535     -191.857391      -66.081169
 C         -74.602097     -193.904251      -67.004433
 C         -74.552460     -192.400726      -66.577057
 H         -71.920609     -191.995224      -67.667419
 H         -71.147446     -192.362534      -66.083344
 H         -73.265396     -193.840805      -68.705788
 H         -73.464188     -195.331726      -67.899971
 H         -73.107277     -190.731995      -66.217987
 H         -73.303696     -192.055176      -64.995735
 H         -74.645462     -194.553909      -66.128098
 H         -75.577614     -194.120804      -67.560661
 H         -74.857750     -191.831223      -67.463348
 H         -75.437279     -192.304611      -65.754105
