20
 generated by VMD
 C         -76.123711     -202.738800      -66.459740
 N         -76.879166     -203.101929      -65.680786
 H         -75.668655     -200.263260      -68.540604
 H         -75.250145     -202.388290      -66.963097
 C         -74.889687     -199.641418      -69.043930
 C         -74.851952     -198.248138      -68.506531
 C         -73.720055     -200.196442      -69.935776
 C         -73.405746     -197.797684      -68.533524
 C         -73.222061     -198.957489      -70.859291
 C         -72.754028     -197.824310      -69.979462
 H         -75.224312     -198.168076      -67.459724
 H         -75.399986     -197.609512      -69.071213
 H         -72.822876     -200.470261      -69.406113
 H         -74.118385     -201.015305      -70.452820
 H         -72.776443     -198.237305      -67.720085
 H         -73.412682     -196.708374      -68.141029
 H         -74.010124     -198.592453      -71.503784
 H         -72.340858     -199.249313      -71.414803
 H         -71.610786     -197.779785      -69.749527
 H         -72.873596     -196.910172      -70.429245
