20
 generated by VMD
 C         -58.512299     -161.502670      -56.250984
 N         -58.283775     -160.336105      -56.303196
 H         -59.742683     -165.021347      -55.195545
 H         -58.818256     -162.552322      -56.160248
 C         -60.324150     -164.271576      -54.693848
 C         -59.749508     -163.545135      -53.601223
 C         -61.786949     -164.331406      -54.831337
 C         -60.441757     -162.267685      -53.285877
 C         -62.293636     -162.949097      -54.790970
 C         -61.910835     -162.321793      -53.473221
 H         -58.649773     -163.350632      -53.779819
 H         -59.459435     -164.172913      -52.726749
 H         -62.126434     -164.916885      -55.691479
 H         -62.231014     -164.909363      -54.012127
 H         -60.031372     -161.461639      -53.977215
 H         -60.364979     -161.897186      -52.225952
 H         -63.400482     -162.875870      -54.824982
 H         -61.708374     -162.383682      -55.663845
 H         -62.249268     -161.325714      -53.548901
 H         -62.398243     -162.841492      -52.607380
