20
 generated by VMD
 C         -12.751333      -27.023617       -2.526701
 N         -12.245259      -27.719973       -1.798288
 H         -10.567461      -26.475937       -4.406667
 H          -9.068013      -26.052752       -5.263683
 C          -9.456124      -26.575907       -4.425265
 C          -9.028901      -28.019659       -4.487146
 C          -8.781399      -25.859171       -3.236276
 C          -7.496230      -28.188770       -4.371099
 C          -7.248940      -25.983709       -3.227962
 C          -6.912022      -27.491598       -3.177710
 H          -9.497144      -28.332388       -5.476924
 H          -9.392534      -28.528543       -3.626141
 H          -9.033812      -24.785448       -3.184653
 H          -9.179517      -26.332279       -2.352555
 H          -7.034223      -27.623833       -5.252070
 H          -7.233756      -29.300198       -4.364012
 H          -6.683296      -25.495396       -2.425475
 H          -6.889402      -25.718012       -4.221553
 H          -5.831964      -27.665461       -3.098434
 H          -7.376975      -27.822435       -2.274952
