20
 generated by VMD
 C         -11.890690      -37.873943       -7.851998
 N         -11.142967      -37.624786       -7.035862
 H         -12.523796      -41.555008       -8.684545
 H         -13.440352      -40.520466       -7.663595
 C         -13.526373      -41.160183       -8.492638
 C         -14.416750      -42.375973       -8.065923
 C         -14.188214      -40.454582       -9.708035
 C         -15.902299      -41.991940       -7.897249
 C         -15.526749      -39.843666       -9.272224
 C         -16.499773      -41.031574       -8.962699
 H         -14.018099      -42.816425       -7.162781
 H         -14.233359      -43.128609       -8.842143
 H         -13.475881      -39.739864      -10.102176
 H         -14.324800      -41.180199      -10.560468
 H         -16.051565      -41.471794       -6.952446
 H         -16.484154      -42.930378       -7.852936
 H         -15.933949      -39.292679      -10.105793
 H         -15.521396      -39.230267       -8.356757
 H         -17.446495      -40.654926       -8.678769
 H         -16.587944      -41.553051       -9.914512
