20
 generated by VMD
 C         -30.550983      -93.379135      -25.139069
 N         -29.563850      -93.858078      -25.457750
 H         -33.763866      -91.756760      -26.466682
 H         -31.609901      -93.006752      -24.900301
 C         -34.108044      -91.635902      -27.448124
 C         -35.426117      -92.243202      -27.796326
 C         -33.377075      -91.064064      -28.533709
 C         -36.277660      -91.437355      -28.773153
 C         -34.187664      -90.326012      -29.633722
 C         -35.462543      -91.103142      -30.045410
 H         -36.162804      -92.550224      -26.868593
 H         -35.085526      -93.240616      -28.240730
 H         -32.602417      -90.404327      -28.122068
 H         -32.941563      -91.925690      -29.137617
 H         -36.518421      -90.484810      -28.215250
 H         -37.200600      -91.906227      -28.952438
 H         -33.664494      -90.221497      -30.557552
 H         -34.547043      -89.320778      -29.344568
 H         -36.240227      -90.581161      -30.633303
 H         -35.134495      -91.924294      -30.756712
