20
 generated by VMD
 C         -41.671535     -101.444984      -32.707760
 N         -41.540005     -101.587387      -33.851589
 H         -38.737740     -102.930199      -32.495594
 H         -41.744110     -101.409653      -31.564436
 C         -37.796356     -103.068665      -31.996630
 C         -36.661350     -103.092957      -32.934708
 C         -37.546543     -103.533028      -30.679985
 C         -35.329685     -102.456223      -32.431576
 C         -36.393738     -102.759743      -30.139698
 C         -35.108936     -102.876030      -30.901318
 H         -36.860497     -102.485847      -33.814774
 H         -36.434868     -104.105774      -33.258133
 H         -38.473118     -103.360779      -30.144478
 H         -37.201935     -104.651192      -30.607958
 H         -35.383949     -101.352478      -32.513893
 H         -34.485165     -102.832870      -33.077335
 H         -35.966595     -103.000961      -29.090000
 H         -36.782581     -101.779648      -30.075859
 H         -34.366707     -102.225388      -30.397310
 H         -34.807442     -103.909271      -30.938364
