20
 generated by VMD
 C         -41.876339     -101.962486      -33.709675
 N         -40.777809     -101.881004      -34.015625
 H         -39.191105     -103.846878      -32.571487
 H         -42.941143     -101.901978      -33.523968
 C         -38.150635     -103.779457      -32.289272
 C         -37.070351     -103.471329      -33.157188
 C         -37.898060     -104.435730      -30.853765
 C         -35.791203     -103.043785      -32.397499
 C         -36.814873     -103.689293      -30.148701
 C         -35.563053     -103.830383      -31.080172
 H         -37.561089     -102.686386      -33.766811
 H         -36.867870     -104.360146      -33.754082
 H         -38.847134     -104.603119      -30.370350
 H         -37.541531     -105.446739      -31.127922
 H         -35.943771     -102.032768      -32.052937
 H         -34.912437     -103.074013      -32.940701
 H         -36.595528     -104.118256      -29.164848
 H         -37.098938     -102.576225      -29.962370
 H         -34.745274     -103.587334      -30.469868
 H         -35.338303     -104.862946      -31.389582
