20
 generated by VMD
 C         -60.301758     -170.609055      -55.191349
 N         -59.189743     -171.043015      -55.290260
 H         -63.252850     -170.620773      -56.689308
 H         -61.309048     -170.173828      -55.010910
 C         -63.512245     -169.640366      -56.965637
 C         -62.293896     -168.789200      -57.637569
 C         -64.617920     -168.842377      -56.353870
 C         -62.936756     -167.929474      -58.718273
 C         -65.165825     -167.986572      -57.493671
 C         -64.191856     -167.104324      -58.230034
 H         -61.658115     -169.539185      -57.995487
 H         -61.801525     -168.075165      -56.929825
 H         -65.260155     -169.717865      -55.922260
 H         -64.141823     -168.307709      -55.499775
 H         -63.286900     -168.568802      -59.494934
 H         -62.416683     -167.202057      -59.294239
 H         -66.033020     -167.368362      -57.110424
 H         -65.565620     -168.683182      -58.358433
 H         -64.718254     -166.761948      -59.123760
 H         -63.805561     -166.256195      -57.683815
