20
 generated by VMD
 C         -40.979137     -119.344711      -34.802334
 N         -40.034031     -119.030861      -35.377357
 H         -43.471573     -117.325844      -36.268600
 H         -41.927193     -119.446533      -34.370731
 C         -43.936001     -117.376747      -37.213169
 C         -43.040386     -117.750969      -38.337036
 C         -45.303082     -116.772591      -37.595875
 C         -43.763729     -118.364433      -39.545044
 C         -45.904938     -117.468864      -38.774124
 C         -44.997536     -117.710052      -40.049793
 H         -42.440910     -118.540070      -37.987915
 H         -42.494495     -116.883629      -38.740719
 H         -46.076138     -116.839653      -36.703484
 H         -45.152641     -115.731529      -37.857536
 H         -44.233921     -119.336945      -39.339443
 H         -42.974701     -118.517563      -40.365681
 H         -46.889946     -117.004799      -39.043533
 H         -46.062134     -118.533020      -38.509216
 H         -45.599960     -118.451706      -40.756496
 H         -44.769371     -116.829918      -40.631283
