20
 generated by VMD
 C         -11.954868      -26.002384       -0.069938
 N         -12.935227      -26.218548       -0.584204
 H          -9.919224      -26.452232       -3.161607
 H          -9.385202      -25.706760       -4.697487
 C          -9.005037      -26.176193       -3.769957
 C          -8.061089      -27.299700       -4.109846
 C          -8.361384      -25.139509       -2.881010
 C          -6.764077      -26.654739       -4.719088
 C          -7.155748      -24.539165       -3.551015
 C          -6.134506      -25.627523       -3.793961
 H          -8.611454      -27.960199       -4.916445
 H          -7.710678      -27.898760       -3.259901
 H          -9.038822      -24.333588       -2.580345
 H          -8.002623      -25.732307       -2.004579
 H          -7.061071      -26.196157       -5.691371
 H          -6.051042      -27.478014       -4.903136
 H          -6.758405      -23.709541       -2.947665
 H          -7.419914      -24.039221       -4.525667
 H          -5.220849      -25.162136       -4.148300
 H          -5.848092      -26.002001       -2.822098
