20
 generated by VMD
 C         -23.367491      -53.216209      -13.150896
 N         -23.266628      -52.663010      -14.138003
 H         -20.523716      -54.873386      -14.294953
 H         -23.522221      -53.894367      -12.494967
 C         -19.439182      -54.760502      -14.031309
 C         -18.936357      -53.354778      -14.063815
 C         -18.596096      -56.033142      -13.994760
 C         -17.825743      -53.198231      -12.955978
 C         -17.256792      -55.678608      -13.461642
 C         -16.767717      -54.204586      -13.341011
 H         -19.728779      -52.733929      -13.729280
 H         -18.585463      -53.152733      -15.066595
 H         -19.128036      -56.813175      -13.335215
 H         -18.582464      -56.439148      -14.983831
 H         -18.173878      -53.365467      -11.929771
 H         -17.499187      -52.142044      -13.032661
 H         -16.416080      -56.271961      -13.969109
 H         -17.272507      -56.101234      -12.474180
 H         -16.001310      -54.182652      -12.545684
 H         -16.380350      -53.922558      -14.316290
