20
 generated by VMD
 C          -1.568303      -17.288530        2.041456
 N          -1.591643      -17.270735        3.160791
 H          -5.387540      -17.231016        0.933400
 H          -4.988508      -18.403679       -0.372596
 C          -5.830040      -17.749367        0.063128
 C          -6.283973      -16.804073       -1.013943
 C          -6.957494      -18.575836        0.599364
 C          -7.022869      -17.531441       -2.076870
 C          -7.593119      -19.454205       -0.457938
 C          -8.117334      -18.470528       -1.587448
 H          -5.383680      -16.239761       -1.375831
 H          -6.981756      -16.098675       -0.580937
 H          -6.597730      -19.169460        1.379896
 H          -7.732373      -17.883408        0.859486
 H          -6.311642      -18.190437       -2.697109
 H          -7.450872      -16.802839       -2.762013
 H          -8.432036      -20.051031       -0.073895
 H          -6.847130      -20.146179       -0.860452
 H          -8.472179      -19.057116       -2.428680
 H          -9.028734      -17.954203       -1.225697
