20
 generated by VMD
 C         -12.729107      -27.904842       -5.719469
 N         -13.099254      -28.483927       -6.592078
 H         -12.014285      -31.645834       -4.914183
 H         -11.109710      -30.225462       -5.206747
 C         -11.039379      -31.221121       -4.660776
 C          -9.889878      -32.017956       -5.299980
 C         -10.742789      -30.949125       -3.162712
 C          -8.657172      -31.185007       -5.225622
 C          -9.349685      -30.233332       -3.106717
 C          -8.259216      -31.043159       -3.784188
 H         -10.232023      -32.294495       -6.371908
 H          -9.723131      -32.941219       -4.830682
 H         -11.452830      -30.312931       -2.681624
 H         -10.773797      -31.879812       -2.593411
 H          -8.728594      -30.294075       -5.776945
 H          -7.846854      -31.734896       -5.658246
 H          -9.073479      -30.075291       -2.081856
 H          -9.514338      -29.222084       -3.564007
 H          -7.291268      -30.497862       -3.696641
 H          -8.014416      -32.004288       -3.213521
