20
 generated by VMD
 C         -23.391951      -53.177399      -13.897944
 N         -24.054020      -53.091885      -14.903550
 H         -20.418863      -55.270939      -14.973814
 H         -22.992931      -53.522854      -13.067039
 C         -19.583441      -55.330662      -14.429034
 C         -19.104132      -54.035137      -13.891896
 C         -18.645912      -56.443787      -14.590978
 C         -18.197914      -54.257099      -12.709408
 C         -17.407736      -56.509140      -13.687249
 C         -17.007389      -55.195358      -12.936490
 H         -19.949760      -53.439873      -13.751495
 H         -18.563189      -53.615116      -14.674272
 H         -19.160706      -57.401878      -14.501177
 H         -18.321316      -56.382957      -15.587747
 H         -18.815283      -54.626324      -11.866082
 H         -17.750126      -53.334145      -12.287618
 H         -16.543644      -56.794434      -14.380696
 H         -17.519133      -57.331448      -12.997110
 H         -16.563063      -55.416782      -11.946385
 H         -16.108120      -54.669300      -13.377479
