20
 generated by VMD
 C         -22.489916      -54.818432      -16.004158
 N         -23.546803      -55.352310      -16.040936
 H         -19.619362      -54.699364      -15.482646
 H         -21.312492      -54.745880      -15.763617
 C         -19.423996      -55.616596      -14.879222
 C         -19.399677      -55.434490      -13.354924
 C         -18.863995      -56.837967      -15.326914
 C         -19.605808      -56.702335      -12.545224
 C         -19.567577      -58.087765      -14.674524
 C         -19.237041      -58.039562      -13.181500
 H         -20.185339      -54.714710      -13.062278
 H         -18.403286      -55.058964      -13.136372
 H         -19.204748      -57.012119      -16.385422
 H         -17.776300      -56.846100      -15.120415
 H         -20.684778      -56.768082      -12.270144
 H         -19.048208      -56.656319      -11.632897
 H         -19.127476      -58.984512      -15.225238
 H         -20.627069      -58.160786      -14.887958
 H         -19.749548      -58.873779      -12.650002
 H         -18.178427      -58.185509      -13.084284
