20
 generated by VMD
 C          -5.114667      -21.064108        1.684035
 N          -5.389550      -20.517975        2.614878
 H          -5.098402      -18.523188       -0.667130
 H          -5.459947      -20.184513       -0.110893
 C          -5.753268      -19.399805       -0.889669
 C          -5.527675      -20.082577       -2.253612
 C          -7.192419      -18.930397       -0.624196
 C          -6.686301      -21.012522       -2.661990
 C          -8.321608      -19.798937       -1.195752
 C          -8.025242      -20.224167       -2.587392
 H          -4.548051      -20.632435       -2.160161
 H          -5.473259      -19.279337       -2.962399
 H          -7.475427      -18.771049        0.435253
 H          -7.366672      -17.970354       -1.170652
 H          -6.842823      -21.840294       -1.982300
 H          -6.497296      -21.410664       -3.617088
 H          -9.280363      -19.301422       -1.130373
 H          -8.432151      -20.667641       -0.525070
 H          -8.840598      -20.903534       -2.955432
 H          -7.969742      -19.307102       -3.196550
