20
 generated by VMD
 C         -38.578823     -111.596283      -35.987091
 N         -38.448719     -110.995735      -36.962135
 H         -40.548027     -114.821892      -34.712971
 H         -38.699497     -112.350243      -35.192593
 C         -41.409832     -114.328583      -35.251144
 C         -41.813152     -114.438568      -36.685078
 C         -42.229198     -113.443687      -34.436577
 C         -43.376415     -114.319984      -37.014603
 C         -43.624756     -113.154404      -34.825569
 C         -43.942028     -113.098267      -36.350620
 H         -41.452927     -115.446274      -37.035122
 H         -41.326931     -113.808739      -37.424614
 H         -42.388874     -113.925133      -33.455124
 H         -41.768112     -112.477760      -34.231869
 H         -43.898895     -115.261543      -36.754871
 H         -43.344032     -114.237282      -38.107868
 H         -44.058430     -112.214691      -34.367092
 H         -44.376610     -113.754509      -34.233181
 H         -44.947014     -113.068718      -36.434872
 H         -43.556034     -112.106087      -36.579845
