20
 generated by VMD
 C         -47.708172     -136.598709      -45.984230
 N         -46.919647     -136.072662      -46.560631
 H         -51.224045     -135.557159      -45.900806
 H         -48.223965     -137.048401      -45.206894
 C         -51.625210     -136.343201      -45.335358
 C         -52.112286     -137.449615      -46.163254
 C         -51.824379     -136.275833      -43.788506
 C         -51.990322     -138.766312      -45.415421
 C         -51.722351     -137.574341      -43.148254
 C         -52.378555     -138.789398      -43.933453
 H         -51.528782     -137.464417      -47.102123
 H         -53.143349     -137.250381      -46.411194
 H         -51.160049     -135.543106      -43.383106
 H         -52.870781     -135.890533      -43.607079
 H         -50.997185     -139.216370      -45.574028
 H         -52.648293     -139.476669      -45.861675
 H         -51.969318     -137.623886      -42.103935
 H         -50.645744     -137.802032      -43.153332
 H         -52.326847     -139.789352      -43.493015
 H         -53.455177     -138.882751      -43.930248
