20
 generated by VMD
 C         -68.109795     -179.161194      -58.311409
 N         -67.161209     -178.665817      -57.861244
 H         -65.945702     -176.179504      -58.734455
 H         -68.978256     -179.615295      -58.700268
 C         -65.313934     -175.775818      -59.577099
 C         -66.114410     -174.700653      -60.369686
 C         -63.870174     -175.966339      -59.634392
 C         -65.414345     -173.391586      -60.221474
 C         -63.112186     -174.633362      -59.732986
 C         -63.836555     -173.609558      -60.583736
 H         -67.089523     -174.597336      -59.899319
 H         -66.411995     -175.058182      -61.353069
 H         -63.574612     -176.382050      -58.665077
 H         -63.582066     -176.638336      -60.372036
 H         -65.532234     -172.930511      -59.142658
 H         -65.692337     -172.692215      -61.080730
 H         -62.068596     -174.753876      -60.102856
 H         -63.087608     -174.189240      -58.678497
 H         -63.333149     -172.635101      -60.557579
 H         -63.598190     -173.868744      -61.622974
