20
 generated by VMD
 C         -29.144482      -81.079094      -27.362171
 N         -29.977842      -80.283180      -27.642065
 H         -28.353800      -82.616173      -24.051756
 H         -28.445713      -81.777077      -27.058754
 C         -29.334141      -83.027710      -23.824501
 C         -29.569227      -83.427773      -22.469187
 C         -29.953146      -83.846680      -24.895699
 C         -31.083809      -83.662781      -22.247885
 C         -31.445421      -84.048798      -24.746719
 C         -31.825361      -84.417839      -23.274071
 H         -29.191057      -82.699158      -21.718204
 H         -28.976856      -84.422043      -22.174629
 H         -29.810699      -83.383377      -25.869608
 H         -29.357763      -84.809792      -24.950531
 H         -31.651188      -82.661377      -22.104086
 H         -31.235508      -84.024582      -21.152483
 H         -31.892887      -84.835930      -25.534014
 H         -31.981773      -83.059631      -24.973873
 H         -32.863831      -84.182549      -23.122540
 H         -31.704502      -85.551399      -23.258781
