20
 generated by VMD
 C         -50.625332     -127.713287      -40.791977
 N         -51.237801     -128.294418      -41.555225
 H         -47.267761     -127.777000      -41.280098
 H         -49.815582     -127.185516      -40.359726
 C         -46.607643     -127.002441      -41.049744
 C         -45.530090     -127.463455      -40.067860
 C         -46.786407     -125.611565      -41.230389
 C         -44.246620     -126.999023      -40.672405
 C         -45.518257     -125.072044      -41.833057
 C         -44.259384     -125.423515      -41.016678
 H         -45.684105     -128.573044      -40.146259
 H         -45.837341     -127.097641      -39.132515
 H         -47.738720     -125.484032      -41.856689
 H         -47.162563     -124.981880      -40.341705
 H         -44.090328     -127.489914      -41.663296
 H         -43.287086     -127.207962      -40.161972
 H         -45.619411     -124.012428      -42.188744
 H         -45.525597     -125.709816      -42.826248
 H         -43.419914     -125.198036      -41.626202
 H         -44.238960     -124.777962      -40.146706
