20
 generated by VMD
 C         -12.646448      -27.779177       -4.393207
 N         -13.744688      -27.850460       -4.494554
 H         -10.635666      -29.466511       -2.604112
 H         -10.429990      -28.091579       -3.722343
 C          -9.939907      -28.908949       -3.229430
 C          -9.405048      -29.824991       -4.363081
 C          -8.802471      -28.442390       -2.348947
 C          -8.500526      -28.977852       -5.231518
 C          -7.737715      -27.655416       -3.192583
 C          -7.289575      -28.495199       -4.397882
 H         -10.224201      -30.273628       -4.961298
 H          -8.958834      -30.676863       -3.892588
 H          -9.140368      -27.764425       -1.533478
 H          -8.283871      -29.304817       -1.938878
 H          -8.979788      -28.126186       -5.729790
 H          -8.100603      -29.566742       -6.095728
 H          -6.879491      -27.389797       -2.576107
 H          -8.153876      -26.708052       -3.525049
 H          -6.659276      -27.923174       -5.106443
 H          -6.703218      -29.376972       -4.166947
