20
 generated by VMD
 C         -20.519270      -64.478012      -17.026417
 N         -19.644423      -64.380356      -16.258703
 H         -24.127129      -63.357635      -17.702717
 H         -21.227016      -64.540054      -17.805277
 C         -24.377337      -64.388580      -17.929562
 C         -24.805569      -64.625214      -19.375038
 C         -24.815144      -65.328491      -16.849430
 C         -24.679052      -66.053398      -19.685574
 C         -24.717464      -66.854805      -17.234423
 C         -25.370035      -66.955475      -18.602646
 H         -24.353298      -64.035645      -20.226501
 H         -25.793856      -64.172745      -19.444580
 H         -24.272268      -65.171104      -15.976986
 H         -25.894808      -65.106651      -16.641438
 H         -23.654499      -66.404106      -19.734871
 H         -25.116371      -66.349930      -20.609509
 H         -25.294916      -67.437691      -16.491287
 H         -23.716190      -67.238075      -17.256926
 H         -25.156887      -68.015800      -18.948631
 H         -26.430214      -66.777542      -18.572235
