20
 generated by VMD
 C         -67.616333     -177.900665      -57.651287
 N         -67.321976     -178.766266      -56.937176
 H         -64.674370     -176.339142      -59.107983
 H         -67.949570     -177.190414      -58.433064
 C         -64.583084     -175.436935      -59.687466
 C         -65.776634     -174.532074      -59.652588
 C         -63.226471     -175.008545      -60.157845
 C         -65.404991     -173.078064      -59.543282
 C         -62.898766     -173.469116      -60.250198
 C         -64.203239     -172.665329      -60.435463
 H         -66.361389     -174.786453      -58.754246
 H         -66.362183     -174.682175      -60.589718
 H         -62.338585     -175.403641      -59.709270
 H         -63.085812     -175.245361      -61.246517
 H         -65.080238     -172.958969      -58.544376
 H         -66.274078     -172.516052      -59.809689
 H         -62.097233     -173.329636      -60.982841
 H         -62.466396     -173.348938      -59.205856
 H         -63.798592     -171.646057      -60.355484
 H         -64.587120     -172.853012      -61.424221
