20
 generated by VMD
 C         -12.712616      -27.930511       -4.244451
 N         -13.790780      -27.756485       -4.433444
 H         -10.559158      -29.374256       -2.465674
 H         -10.635158      -28.107595       -3.664711
 C          -9.877077      -28.842131       -3.179847
 C          -9.401370      -29.673347       -4.376761
 C          -8.772103      -28.251015       -2.404840
 C          -8.405011      -28.896481       -5.247719
 C          -7.680333      -27.656652       -3.223111
 C          -7.229462      -28.485603       -4.380281
 H         -10.212408      -29.996349       -5.069231
 H          -9.036909      -30.614565       -3.973093
 H          -9.176099      -27.468159       -1.731847
 H          -8.469440      -29.033592       -1.639302
 H          -8.863905      -28.035326       -5.711655
 H          -8.032760      -29.541952       -6.016501
 H          -6.760037      -27.449594       -2.596556
 H          -7.908125      -26.657417       -3.587961
 H          -6.601606      -27.825979       -4.966163
 H          -6.646424      -29.377527       -3.957990
