20
 generated by VMD
 C         -78.700081     -208.691452      -77.047195
 N         -79.337563     -208.440979      -76.065071
 H         -78.594849     -209.502838      -73.518456
 H         -77.972588     -208.806580      -77.792969
 C         -78.425537     -209.862015      -72.516235
 C         -77.032692     -209.755493      -71.793793
 C         -79.217667     -211.082535      -72.147133
 C         -77.154221     -209.900635      -70.272858
 C         -79.189690     -211.476501      -70.676994
 C         -77.778244     -211.370865      -70.022530
 H         -76.632561     -208.766281      -72.050201
 H         -76.426979     -210.657150      -72.138466
 H         -80.280777     -210.701752      -72.373093
 H         -79.083969     -211.951828      -72.780037
 H         -77.955048     -209.216049      -70.025940
 H         -76.233246     -209.680435      -69.692917
 H         -79.555809     -212.546448      -70.363518
 H         -79.910538     -210.839905      -70.229431
 H         -77.769920     -211.350769      -68.913681
 H         -77.147102     -212.208923      -70.355637
