20
 generated by VMD
 C         -39.831944     -100.975990      -31.432163
 N         -40.571465     -100.118080      -31.197380
 H         -37.377899     -103.388550      -31.560583
 H         -39.217396     -101.761833      -31.858416
 C         -36.864212     -102.441132      -31.595890
 C         -36.246880     -101.913269      -32.740616
 C         -36.459232     -101.978973      -30.105974
 C         -35.863388     -100.437469      -32.564610
 C         -36.280193     -100.460510      -30.128279
 C         -35.212624     -100.244995      -31.115837
 H         -36.898514     -102.059654      -33.610111
 H         -35.365471     -102.553749      -32.871967
 H         -37.212276     -102.409126      -29.421576
 H         -35.505581     -102.445702      -29.842848
 H         -36.789749      -99.695824      -32.610893
 H         -35.164864     -100.005814      -33.281452
 H         -35.858036     -100.259949      -29.212130
 H         -37.230400      -99.877060      -30.270346
 H         -34.704880      -99.232269      -31.017538
 H         -34.469563     -101.002914      -30.893003
