20
 generated by VMD
 C         -75.840172     -202.485016      -66.325821
 N         -76.683594     -202.902145      -65.656029
 H         -75.579185     -200.364197      -68.594872
 H         -75.133286     -202.117447      -67.123169
 C         -74.904030     -199.633209      -69.078453
 C         -74.793907     -198.309250      -68.481598
 C         -73.958939     -200.028305      -70.086510
 C         -73.419281     -197.565704      -68.452499
 C         -73.180321     -198.860840      -70.672600
 C         -72.676247     -197.779861      -69.801590
 H         -75.116898     -198.426636      -67.406769
 H         -75.547531     -197.668259      -68.952461
 H         -73.193878     -200.635498      -69.722580
 H         -74.513588     -200.581985      -70.820946
 H         -72.729965     -198.048523      -67.757210
 H         -73.551079     -196.451569      -68.329338
 H         -73.948013     -198.454956      -71.388092
 H         -72.388687     -199.221161      -71.459244
 H         -71.556992     -198.020950      -69.572746
 H         -72.680153     -196.843079      -70.464775
