20
 generated by VMD
 C         -19.524860      -60.853588      -17.393015
 N         -19.956059      -59.853554      -17.725979
 H         -22.718416      -60.222618      -16.402765
 H         -19.353516      -61.908073      -17.127651
 C         -23.108185      -61.214485      -16.404398
 C         -23.434935      -61.925797      -17.624456
 C         -23.428885      -61.901592      -15.114647
 C         -22.796629      -63.394878      -17.535307
 C         -23.243717      -63.379818      -15.081707
 C         -23.562523      -64.101387      -16.363621
 H         -23.235506      -61.520172      -18.649134
 H         -24.550343      -62.266033      -17.494715
 H         -22.756453      -61.522449      -14.271122
 H         -24.515339      -61.648052      -14.875801
 H         -21.725107      -63.355572      -17.366245
 H         -22.982214      -63.928062      -18.416388
 H         -24.002224      -63.688885      -14.360121
 H         -22.324909      -63.769371      -14.628267
 H         -23.278675      -65.173615      -16.411327
 H         -24.696594      -64.062103      -16.510242
