20
 generated by VMD
 C         -22.568773      -52.279652      -11.677615
 N         -22.268549      -52.699863      -10.591873
 H         -19.985567      -52.537491      -14.352222
 H         -22.589401      -51.821030      -12.616770
 C         -18.938650      -52.305386      -13.925388
 C         -17.948627      -51.734264      -14.813244
 C         -18.475039      -52.810684      -12.608976
 C         -16.476780      -52.202557      -14.571586
 C         -17.156500      -52.208630      -12.082887
 C         -16.043491      -52.111309      -13.105083
 H         -17.963419      -50.658081      -14.838007
 H         -18.171289      -52.094578      -15.857212
 H         -19.299383      -52.669937      -11.890780
 H         -18.305578      -53.842934      -12.725306
 H         -15.822179      -51.577347      -15.221318
 H         -16.322849      -53.270130      -14.889970
 H         -16.739578      -52.672485      -11.217460
 H         -17.461624      -51.141285      -11.747209
 H         -15.426845      -51.265118      -12.773990
 H         -15.417263      -53.025475      -13.006389
