20
 generated by VMD
 C         -12.667251      -27.953074       -5.635648
 N         -13.120629      -28.442013       -6.536528
 H         -11.972533      -31.695602       -4.669002
 H         -11.225996      -30.215883       -5.238449
 C         -11.027593      -31.136227       -4.645720
 C          -9.947020      -31.987011       -5.325109
 C         -10.649993      -30.900183       -3.217628
 C          -8.571691      -31.339077       -5.229220
 C          -9.382943      -30.132113       -3.055920
 C          -8.231570      -30.821465       -3.794879
 H         -10.400807      -32.155010       -6.280113
 H          -9.986863      -32.996422       -4.840827
 H         -11.471181      -30.401991       -2.681555
 H         -10.580699      -31.849031       -2.721095
 H          -8.643857      -30.394659       -5.833408
 H          -7.788665      -31.936781       -5.723177
 H          -9.134860      -29.990332       -2.035200
 H          -9.597955      -29.122040       -3.513134
 H          -7.301343      -30.205570       -3.628602
 H          -7.953202      -31.720270       -3.184187
