20
 generated by VMD
 C         -78.836525     -207.919708      -76.547668
 N         -78.516029     -207.860107      -75.424942
 H         -79.400360     -210.143951      -73.294189
 H         -78.927971     -207.829300      -77.641312
 C         -78.799164     -210.135742      -72.411919
 C         -77.511642     -209.488556      -72.403839
 C         -79.024490     -211.400787      -71.561996
 C         -77.096779     -209.123322      -70.885483
 C         -78.604134     -211.000900      -70.071632
 C         -77.173927     -210.257065      -69.865250
 H         -77.488792     -208.611710      -73.052643
 H         -76.819725     -210.194138      -72.762527
 H         -80.067848     -211.539200      -71.780685
 H         -78.443283     -212.239319      -71.882309
 H         -77.799530     -208.362457      -70.657188
 H         -76.087234     -208.717117      -70.879486
 H         -78.559982     -211.837509      -69.426552
 H         -79.550674     -210.387726      -69.773697
 H         -76.934578     -209.877731      -68.866966
 H         -76.523895     -211.116043      -70.058662
