20
 generated by VMD
 C         -40.456364     -106.909706      -37.635654
 N         -39.329247     -106.645760      -37.861034
 H         -38.591454     -108.154503      -34.370026
 H         -41.414177     -107.333786      -37.393669
 C         -39.299492     -108.882050      -33.902206
 C         -38.765305     -110.060493      -33.328094
 C         -40.751350     -108.802742      -34.316799
 C         -39.648548     -110.636497      -32.216816
 C         -41.714687     -109.452583      -33.293633
 C         -41.163960     -110.816254      -32.642296
 H         -37.640152     -109.944374      -32.906532
 H         -38.715275     -110.918335      -34.058075
 H         -41.021843     -107.826096      -34.538017
 H         -40.911755     -109.325577      -35.257191
 H         -39.588009     -110.085403      -31.342171
 H         -39.125305     -111.587822      -31.953566
 H         -42.617508     -109.717964      -33.889767
 H         -42.006454     -108.805107      -32.495052
 H         -41.776814     -111.173958      -31.691111
 H         -41.275333     -111.613205      -33.336338
