20
 generated by VMD
 C         -40.753853     -100.892387      -32.656189
 N         -41.411739     -101.074257      -31.733910
 H         -38.334373     -102.559296      -32.452850
 H         -39.875385     -100.774643      -33.308846
 C         -37.302204     -102.708717      -32.033237
 C         -36.101940     -102.742188      -32.809765
 C         -37.218395     -102.613594      -30.571411
 C         -35.350819     -101.452415      -32.401852
 C         -36.306515     -101.496674      -30.015394
 C         -35.090672     -101.396141      -30.902355
 H         -36.276283     -102.810219      -33.874065
 H         -35.536533     -103.616692      -32.478737
 H         -38.243679     -102.367249      -30.294527
 H         -36.897984     -103.504578      -30.083164
 H         -35.928822     -100.593163      -32.796608
 H         -34.502956     -101.513115      -33.072704
 H         -36.019093     -101.688301      -28.940899
 H         -37.033573     -100.614777      -30.039787
 H         -34.709148     -100.475128      -30.569283
 H         -34.391697     -102.213531      -30.625916
