20
 generated by VMD
 C          -1.164293      -13.262187        0.939092
 N          -0.440359      -13.056990        0.073778
 H          -4.509193      -12.976259        1.693605
 H          -5.854516      -13.612118        0.616530
 C          -5.180563      -13.836282        1.428854
 C          -5.996044      -14.342479        2.604986
 C          -4.349917      -14.963836        0.830661
 C          -6.935686      -15.452297        2.087340
 C          -5.221856      -16.190918        0.421745
 C          -6.227564      -16.638889        1.553555
 H          -6.545319      -13.480271        2.966639
 H          -5.366598      -14.637719        3.404203
 H          -3.765577      -14.554442        0.003432
 H          -3.629689      -15.156379        1.650742
 H          -7.624712      -15.023707        1.364727
 H          -7.552696      -15.741456        2.937276
 H          -4.545776      -16.974304        0.107920
 H          -5.822176      -15.958934       -0.484629
 H          -6.935864      -17.312988        1.126277
 H          -5.651400      -17.134249        2.318294
