20
 generated by VMD
 C         -10.489645      -37.664417       -7.683751
 N         -11.302954      -36.933582       -7.703065
 H         -12.589921      -39.660172       -8.151239
 H         -13.856956      -39.355209       -7.125486
 C         -13.627581      -39.909214       -8.002579
 C         -13.836501      -41.454281       -7.736515
 C         -14.542110      -39.351768       -9.103347
 C         -15.319140      -41.901985       -7.749963
 C         -16.000315      -39.647053       -8.837142
 C         -16.165512      -41.235683       -8.860124
 H         -13.323771      -41.795982       -6.822481
 H         -13.230395      -41.926224       -8.487942
 H         -14.312549      -38.245747       -9.244742
 H         -14.267213      -39.776058      -10.066362
 H         -15.874338      -41.687889       -6.819424
 H         -15.348185      -43.013165       -7.786986
 H         -16.686630      -39.148193       -9.551546
 H         -16.287056      -39.373268       -7.821880
 H         -17.217321      -41.469471       -8.676274
 H         -15.924022      -41.547466       -9.832705
