20
 generated by VMD
 C         -29.653034      -90.982109      -25.215963
 N         -28.972725      -91.938721      -25.007936
 H         -32.305920      -90.997543      -26.935743
 H         -30.227594      -90.079140      -25.301310
 C         -33.060001      -90.574944      -27.536940
 C         -34.227283      -91.502975      -27.483803
 C         -33.115974      -89.624847      -28.621777
 C         -35.606335      -90.701599      -27.511662
 C         -34.431877      -88.907852      -28.686693
 C         -35.761654      -89.862747      -28.706676
 H         -34.225151      -92.237862      -26.679033
 H         -34.181126      -92.059006      -28.354630
 H         -32.288280      -88.845131      -28.455654
 H         -32.858486      -90.023720      -29.627441
 H         -35.549389      -90.134109      -26.587606
 H         -36.459538      -91.448807      -27.298897
 H         -34.381969      -88.349426      -29.663881
 H         -34.529877      -88.276169      -27.782604
 H         -36.742546      -89.360832      -28.720427
 H         -35.578270      -90.430481      -29.591290
