20
 generated by VMD
 C         -12.335699      -27.079990       -2.687638
 N         -13.051845      -27.735373       -2.116057
 H         -10.578812      -26.796888       -4.312312
 H          -9.167926      -26.322483       -5.319468
 C          -9.478555      -26.817589       -4.349957
 C          -8.999763      -28.243584       -4.405530
 C          -8.883671      -26.156294       -3.109910
 C          -7.498890      -28.273848       -4.570271
 C          -7.308456      -26.222717       -3.177021
 C          -6.807065      -27.669991       -3.376210
 H          -9.442423      -28.757767       -5.199246
 H          -9.177339      -28.802664       -3.410255
 H          -9.244394      -25.113918       -3.067725
 H          -9.229147      -26.767118       -2.225818
 H          -7.221440      -27.711246       -5.461290
 H          -7.224521      -29.302404       -4.684331
 H          -6.877276      -25.747902       -2.323313
 H          -7.085623      -25.579687       -4.008516
 H          -5.725149      -27.809795       -3.494238
 H          -7.043374      -28.277388       -2.458685
