20
 generated by VMD
 C         -73.153473     -199.841019      -65.651382
 N         -73.907532     -200.583618      -65.165962
 H         -71.453514     -196.838135      -67.088036
 H         -72.437325     -199.224274      -66.148018
 C         -72.178917     -196.380173      -67.718536
 C         -73.275902     -195.638214      -67.125214
 C         -72.349342     -197.083237      -69.052521
 C         -74.259460     -195.079422      -68.269188
 C         -73.865524     -197.326309      -69.321625
 C         -74.886459     -196.265350      -69.019646
 H         -72.879135     -194.754990      -66.613274
 H         -73.739052     -196.272873      -66.394478
 H         -71.910637     -196.358475      -69.809532
 H         -71.749969     -198.083099      -68.977699
 H         -73.807953     -194.217102      -68.811256
 H         -75.095535     -194.651627      -67.737335
 H         -74.208549     -198.245697      -68.866234
 H         -73.859962     -197.616821      -70.423714
 H         -75.491814     -195.916016      -69.982307
 H         -75.604935     -196.763199      -68.445465
