20
 generated by VMD
 C         -19.383345      -60.660408      -17.858889
 N         -20.114851      -59.753330      -17.809578
 H         -22.773890      -59.945610      -15.958179
 H         -18.483610      -61.440380      -17.804844
 C         -23.215178      -60.976559      -16.081551
 C         -23.238628      -61.672321      -17.374311
 C         -23.620962      -61.814362      -14.851531
 C         -22.626062      -63.081928      -17.428493
 C         -23.000210      -63.193214      -14.880371
 C         -23.296865      -63.829887      -16.316502
 H         -22.749928      -61.056805      -18.195450
 H         -24.386829      -61.624226      -17.689487
 H         -23.536104      -61.310951      -13.798389
 H         -24.710894      -61.882164      -14.941968
 H         -21.618313      -62.943531      -17.157854
 H         -22.693424      -63.558887      -18.384722
 H         -23.499794      -63.769974      -14.096992
 H         -21.947086      -63.263649      -14.648621
 H         -22.925695      -64.907242      -16.250067
 H         -24.389175      -63.914799      -16.299038
