20
 generated by VMD
 C         -29.413055      -74.317566      -20.172112
 N         -30.442186      -74.841599      -20.271896
 H         -25.818213      -74.038742      -18.954578
 H         -28.234159      -74.183098      -20.260578
 C         -26.080490      -73.823158      -19.990541
 C         -25.691027      -74.980949      -20.819450
 C         -25.664810      -72.407784      -20.388317
 C         -26.100588      -74.866066      -22.205530
 C         -26.071548      -72.212234      -21.888273
 C         -25.569124      -73.423218      -22.732380
 H         -26.213840      -75.790001      -20.393703
 H         -24.569107      -75.056992      -20.651707
 H         -26.345390      -71.649063      -19.858751
 H         -24.623486      -72.162453      -20.417364
 H         -27.168537      -74.992668      -22.232016
 H         -25.630892      -75.548683      -22.895864
 H         -25.614220      -71.324608      -22.376566
 H         -27.167349      -72.241196      -22.020807
 H         -25.978157      -73.379097      -23.756632
 H         -24.521629      -73.500824      -22.683146
