20
 generated by VMD
 C         -27.642464      -72.687531      -17.963131
 N         -28.065693      -73.516953      -17.279150
 H         -24.747900      -70.679916      -18.718681
 H         -27.307026      -72.011963      -18.676006
 C         -25.067924      -70.985428      -19.718239
 C         -24.396925      -72.138123      -20.443420
 C         -25.661638      -69.907051      -20.578291
 C         -25.313173      -72.557556      -21.541428
 C         -26.561541      -70.463211      -21.781637
 C         -25.613884      -71.409775      -22.568239
 H         -24.270039      -73.078423      -19.701775
 H         -23.391483      -71.887329      -20.815342
 H         -26.247742      -69.267815      -19.793348
 H         -24.869442      -69.242935      -20.941380
 H         -26.301401      -72.961227      -21.233948
 H         -24.939209      -73.431480      -22.108780
 H         -26.974228      -69.618782      -22.418283
 H         -27.493967      -70.843643      -21.279577
 H         -26.211739      -71.782791      -23.300699
 H         -24.688110      -71.025818      -23.005688
