20
 generated by VMD
 C         -32.995445      -96.749100      -25.340733
 N         -32.769733      -96.325813      -24.286903
 H         -34.431564      -93.954521      -27.513031
 H         -33.161114      -97.098915      -26.374084
 C         -34.668846      -93.363426      -28.428736
 C         -36.034489      -93.515717      -29.018843
 C         -33.513260      -93.164413      -29.348074
 C         -36.179806      -92.625977      -30.320354
 C         -33.811672      -92.234062      -30.537043
 C         -35.057514      -92.658844      -31.310062
 H         -36.888447      -93.222748      -28.418476
 H         -36.117706      -94.553978      -29.316160
 H         -32.766388      -92.734932      -28.680452
 H         -33.206257      -94.133896      -29.706858
 H         -36.292583      -91.654327      -29.969837
 H         -37.167847      -92.949165      -30.816925
 H         -32.970100      -92.401863      -31.224880
 H         -33.704601      -91.137352      -30.430378
 H         -35.363205      -92.058067      -32.153435
 H         -35.129936      -93.675819      -31.647215
