20
 generated by VMD
 C         -69.722359     -183.212372      -65.228310
 N         -69.936523     -182.388702      -66.010941
 H         -67.593292     -184.802017      -62.889545
 H         -69.530060     -183.997604      -64.552643
 C         -67.914459     -184.037247      -62.186253
 C         -67.933334     -184.407745      -60.684151
 C         -67.831978     -182.642746      -62.656258
 C         -67.064095     -183.466202      -59.953735
 C         -67.022514     -181.714172      -61.677425
 C         -67.474274     -182.001389      -60.210831
 H         -67.842216     -185.511826      -60.666866
 H         -69.020309     -184.268738      -60.405445
 H         -67.268715     -182.521027      -63.627014
 H         -68.848610     -182.205917      -62.689556
 H         -66.056442     -183.628006      -60.229321
 H         -67.195633     -183.594864      -58.930649
 H         -67.288361     -180.709015      -62.011421
 H         -65.901360     -181.882965      -61.732449
 H         -67.080719     -181.487244      -59.352444
 H         -68.570091     -181.893387      -60.053753
