20
 generated by VMD
 C         -10.131918      -36.016098       -8.657060
 N         -10.115909      -34.981113       -9.097161
 H         -13.426050      -36.874088       -6.569325
 H         -14.609528      -37.862072       -5.654907
 C         -14.018109      -37.896519       -6.552161
 C         -13.102691      -39.106369       -6.589866
 C         -15.018114      -37.890137       -7.724619
 C         -13.850318      -40.473564       -6.732226
 C         -15.738599      -39.223385       -7.994077
 C         -14.777157      -40.448441       -7.956812
 H         -12.449559      -39.134094       -5.745993
 H         -12.428738      -39.013149       -7.395578
 H         -15.783731      -37.086887       -7.654172
 H         -14.473209      -37.626060       -8.651631
 H         -14.395638      -40.640236       -5.756119
 H         -13.171287      -41.310719       -6.724778
 H         -16.218189      -39.172714       -9.026426
 H         -16.559990      -39.369579       -7.272928
 H         -15.313765      -41.393486       -8.207125
 H         -14.103477      -40.244576       -8.800228
