20
 generated by VMD
 C         -29.061752      -81.404572      -27.660078
 N         -29.822588      -80.503029      -27.557861
 H         -29.077057      -82.253372      -23.832645
 H         -28.423960      -82.115875      -28.007818
 C         -29.470615      -83.249954      -23.786997
 C         -29.765837      -83.774841      -22.412298
 C         -30.010365      -83.833435      -25.028343
 C         -31.307421      -83.904678      -22.292490
 C         -31.503021      -84.093277      -24.816542
 C         -31.934641      -84.664192      -23.452087
 H         -29.455601      -83.001907      -21.663601
 H         -29.240284      -84.657440      -22.219645
 H         -29.755131      -83.169769      -25.926945
 H         -29.556238      -84.798836      -25.265272
 H         -31.776453      -82.865234      -22.130390
 H         -31.447922      -84.587479      -21.400640
 H         -31.856226      -84.744423      -25.570850
 H         -31.999063      -83.107269      -25.028702
 H         -33.094036      -84.633163      -23.418497
 H         -31.766195      -85.722298      -23.319942
