20
 generated by VMD
 C         -20.652601      -64.425301      -16.810514
 N         -19.617928      -64.018692      -16.520964
 H         -24.053040      -63.409908      -17.470913
 H         -21.760265      -64.511414      -16.982981
 C         -24.361423      -64.369812      -17.824812
 C         -24.554657      -64.532349      -19.313381
 C         -24.590347      -65.304482      -16.767202
 C         -24.865944      -65.987038      -19.705551
 C         -24.618908      -66.727646      -17.202284
 C         -25.369461      -66.838707      -18.541334
 H         -23.561670      -64.317581      -19.856258
 H         -25.386978      -63.882629      -19.490551
 H         -23.806860      -65.244171      -16.050884
 H         -25.416506      -65.034813      -16.222279
 H         -23.907673      -66.362633      -20.106588
 H         -25.626017      -65.954674      -20.491795
 H         -25.004511      -67.323364      -16.356812
 H         -23.604553      -67.038246      -17.359428
 H         -25.577993      -67.889305      -18.820215
 H         -26.328466      -66.451065      -18.378223
