20
 generated by VMD
 C         -68.286034     -189.455566      -67.172310
 N         -67.164917     -189.158279      -67.103241
 H         -68.669296     -188.516434      -63.729187
 H         -69.307236     -189.911270      -67.248238
 C         -69.714027     -188.626907      -63.519226
 C         -70.365547     -189.893951      -63.556984
 C         -70.442650     -187.365387      -63.017616
 C         -71.622467     -189.727859      -64.378822
 C         -71.896118     -187.275650      -63.630402
 C         -72.540497     -188.682190      -63.636189
 H         -70.602089     -190.352615      -62.667221
 H         -69.632889     -190.569077      -63.907505
 H         -70.566055     -187.458008      -61.933056
 H         -69.933235     -186.464401      -63.459812
 H         -72.133644     -190.754059      -64.433029
 H         -71.437424     -189.493896      -65.419899
 H         -71.918152     -186.750626      -64.557564
 H         -72.392769     -186.627106      -62.843018
 H         -72.693626     -188.987305      -62.663700
 H         -73.644012     -188.608414      -63.880234
