20
 generated by VMD
 C         -49.152050     -127.131332      -39.634453
 N         -50.303291     -127.250595      -39.435215
 H         -46.548252     -127.205406      -42.654556
 H         -48.201378     -126.966347      -40.139706
 C         -46.423576     -126.421921      -41.845181
 C         -45.337788     -126.989174      -40.854271
 C         -46.583973     -124.981255      -41.957054
 C         -44.213566     -125.913750      -40.423996
 C         -45.449867     -124.000153      -41.508511
 C         -44.918194     -124.566505      -40.183445
 H         -44.880093     -127.914795      -41.221279
 H         -45.996498     -127.383293      -39.970798
 H         -46.914707     -124.722572      -42.952965
 H         -47.493778     -124.718826      -41.431435
 H         -43.314793     -125.884369      -40.979973
 H         -43.925884     -126.308266      -39.472965
 H         -45.909470     -123.021225      -41.377983
 H         -44.558258     -123.983643      -42.203720
 H         -44.316757     -123.752579      -39.755569
 H         -45.796780     -124.759666      -39.471470
