20
 generated by VMD
 C         -46.044449     -124.009399      -35.696865
 N         -46.604019     -125.009155      -35.493935
 H         -44.601547     -122.272720      -38.176357
 H         -45.369865     -123.110657      -35.873833
 C         -44.622730     -121.520012      -39.042191
 C         -43.289646     -121.467361      -39.723915
 C         -45.728382     -120.696892      -39.561409
 C         -43.476589     -121.493958      -41.224564
 C         -45.856937     -120.766243      -41.048077
 C         -44.590706     -120.562492      -41.792881
 H         -42.763947     -122.365540      -39.333176
 H         -42.806374     -120.516251      -39.469440
 H         -46.674240     -121.169876      -39.089268
 H         -45.748466     -119.657852      -39.307148
 H         -43.668056     -122.505676      -41.513588
 H         -42.577335     -121.250664      -41.677734
 H         -46.591141     -120.172592      -41.421577
 H         -46.193275     -121.742981      -41.132809
 H         -44.704670     -120.595924      -42.860222
 H         -44.305527     -119.474396      -41.617847
