20
 generated by VMD
 C         -35.159760      -97.781876      -25.736118
 N         -35.867302      -97.502914      -26.626312
 H         -35.601116      -95.088043      -27.761763
 H         -34.597370      -97.958427      -24.909985
 C         -35.310196      -94.808853      -28.788692
 C         -35.849873      -95.700363      -29.974646
 C         -34.016235      -94.042717      -28.932619
 C         -35.638271      -94.941200      -31.346653
 C         -33.874340      -93.591072      -30.398750
 C         -34.175602      -94.581779      -31.557417
 H         -36.972168      -95.871635      -30.001396
 H         -35.390583      -96.712616      -29.971729
 H         -34.103550      -93.221909      -28.156374
 H         -33.176598      -94.704033      -28.721045
 H         -36.301491      -94.068451      -31.469625
 H         -35.804016      -95.551376      -32.164658
 H         -32.835381      -93.136055      -30.533913
 H         -34.516167      -92.780632      -30.511782
 H         -34.021435      -94.058655      -32.450306
 H         -33.402599      -95.548401      -31.642542
