20
 generated by VMD
 C         -27.925282      -84.589104      -26.064356
 N         -28.393925      -84.661484      -27.130466
 H         -30.640980      -85.087738      -26.085896
 H         -27.427763      -84.587677      -25.018332
 C         -31.587107      -85.587784      -25.795961
 C         -31.825747      -85.730759      -24.441273
 C         -31.970526      -86.652832      -26.763105
 C         -33.085968      -86.401215      -24.045546
 C         -33.364765      -87.137558      -26.458660
 C         -33.401505      -87.661697      -24.999485
 H         -31.793533      -84.855667      -23.905302
 H         -31.018402      -86.279068      -23.958345
 H         -31.889912      -86.171082      -27.790609
 H         -31.289972      -87.458481      -26.743839
 H         -34.030708      -85.782623      -23.896246
 H         -32.990227      -86.712341      -22.930534
 H         -33.469517      -87.842018      -27.326012
 H         -34.141258      -86.367653      -26.604816
 H         -34.404839      -88.100334      -24.796721
 H         -32.564064      -88.434479      -24.690157
