20
 generated by VMD
 C         -60.273491     -156.181976      -56.189293
 N         -60.737057     -155.190613      -55.709690
 H         -59.923813     -158.100006      -52.834415
 H         -59.831223     -157.140457      -56.398743
 C         -58.927746     -157.911499      -52.264351
 C         -58.191044     -156.496811      -52.298508
 C         -58.146500     -159.151947      -51.768547
 C         -57.147205     -156.280060      -51.086739
 C         -57.248901     -158.751328      -50.509991
 C         -56.375015     -157.551270      -50.853371
 H         -59.066120     -155.863800      -52.186241
 H         -57.659863     -156.465454      -53.198292
 H         -58.942204     -159.993362      -51.569538
 H         -57.446331     -159.524460      -52.530415
 H         -57.694378     -156.019150      -50.199883
 H         -56.422131     -155.477539      -51.349148
 H         -56.579773     -159.664688      -50.276016
 H         -57.978363     -158.625610      -49.648899
 H         -55.682453     -157.333099      -50.038132
 H         -55.867977     -157.802429      -51.841621
