20
 generated by VMD
 C         -11.454480      -27.373550       -1.415432
 N         -12.168541      -26.515633       -1.558738
 H         -10.435838      -26.053009       -4.106710
 H          -9.144722      -25.661415       -5.287478
 C          -9.378818      -26.025217       -4.287080
 C          -8.951166      -27.523422       -4.128181
 C          -8.639182      -25.164732       -3.208946
 C          -7.387770      -27.602928       -4.204507
 C          -7.159658      -25.231962       -3.397715
 C          -6.804417      -26.732595       -3.098300
 H          -9.375056      -28.009062       -5.085639
 H          -9.214904      -27.991873       -3.183223
 H          -8.832015      -24.145212       -3.533914
 H          -9.062080      -25.455891       -2.217925
 H          -7.074954      -27.343969       -5.186027
 H          -7.150523      -28.613905       -3.949014
 H          -6.640668      -24.643784       -2.672612
 H          -6.853949      -24.875517       -4.393139
 H          -5.706951      -26.828144       -3.116925
 H          -7.114551      -26.989252       -2.083918
