20
 generated by VMD
 C         -36.851097      -97.893341      -26.461174
 N         -35.900410      -98.335678      -25.940422
 H         -36.025505      -95.376541      -28.272627
 H         -37.742271      -97.406548      -26.840948
 C         -35.521111      -95.289299      -29.206942
 C         -35.683254      -96.159615      -30.337420
 C         -34.180435      -94.573227      -29.047478
 C         -35.309631      -95.620621      -31.743345
 C         -33.877380      -93.842216      -30.337862
 C         -33.944412      -94.846710      -31.626415
 H         -36.722195      -96.612289      -30.420652
 H         -34.973660      -97.021202      -30.160883
 H         -34.408504      -93.948265      -28.189064
 H         -33.323505      -95.219368      -28.718058
 H         -36.074711      -94.899490      -32.096973
 H         -35.272827      -96.444603      -32.523552
 H         -32.863132      -93.496399      -30.347683
 H         -34.618774      -92.966827      -30.532293
 H         -33.809673      -94.326820      -32.479328
 H         -33.045620      -95.577194      -31.710421
