20
 generated by VMD
 C         -57.710590     -164.332642      -56.665802
 N         -57.275028     -163.417938      -57.184452
 H         -59.757458     -164.678101      -54.220322
 H         -58.260647     -165.115250      -56.206440
 C         -60.814831     -164.789978      -54.478985
 C         -61.826450     -165.642380      -53.702988
 C         -61.408894     -164.488464      -55.947742
 C         -63.234306     -165.075821      -53.723907
 C         -62.742771     -163.826538      -55.874790
 C         -63.704903     -164.765762      -55.158775
 H         -61.558399     -165.569489      -52.655945
 H         -61.836750     -166.675125      -54.033615
 H         -60.657314     -163.784103      -56.287449
 H         -61.354301     -165.417725      -56.603600
 H         -63.330357     -164.101501      -53.205009
 H         -63.941273     -165.722000      -53.269661
 H         -63.250275     -163.677780      -56.885487
 H         -62.867420     -162.877991      -55.342384
 H         -64.677971     -164.335907      -55.103901
 H         -63.724483     -165.658737      -55.730221
