20
 generated by VMD
 C         -58.667000     -160.756729      -56.816742
 N         -58.589439     -159.949646      -57.584785
 H         -59.008678     -164.173889      -54.768314
 H         -58.719849     -161.532776      -56.089680
 C         -59.660198     -163.435135      -54.343021
 C         -59.464767     -163.312149      -52.791954
 C         -61.132107     -163.380585      -54.878700
 C         -60.330914     -162.126678      -52.345482
 C         -62.008709     -162.300842      -54.318295
 C         -61.948200     -162.312393      -52.743664
 H         -58.433445     -163.050415      -52.663208
 H         -59.757343     -164.229263      -52.310627
 H         -61.126202     -163.242691      -56.043015
 H         -61.554855     -164.317993      -54.546303
 H         -59.912872     -161.267410      -52.699009
 H         -60.278397     -161.981857      -51.231087
 H         -63.009830     -162.033035      -54.599720
 H         -61.526115     -161.394852      -54.744553
 H         -62.516193     -161.436432      -52.380802
 H         -62.336918     -163.231216      -52.309116
