20
 generated by VMD
 C         -39.996368      -99.490128      -28.703966
 N         -39.203716     -100.054939      -28.106091
 H         -37.415684      -98.902611      -30.413816
 H         -40.651386      -98.972282      -29.419493
 C         -36.543182      -98.422310      -30.752466
 C         -35.841064      -98.791664      -32.048065
 C         -35.461823      -98.154060      -29.638847
 C         -34.554298      -97.875702      -32.429050
 C         -34.272598      -97.206383      -29.945118
 C         -33.579014      -97.734894      -31.198767
 H         -36.630520      -98.577431      -32.824940
 H         -35.703575      -99.856110      -32.005798
 H         -36.025589      -97.895844      -28.722574
 H         -34.959656      -99.077591      -29.333931
 H         -34.896969      -96.895309      -32.727238
 H         -34.186161      -98.276375      -33.383377
 H         -33.559643      -97.113594      -29.075212
 H         -34.583656      -96.162910      -30.235384
 H         -32.766186      -97.125786      -31.510315
 H         -33.044968      -98.730019      -31.088823
