20
 generated by VMD
 C         -41.958008     -101.831673      -33.622364
 N         -40.817730     -101.855202      -33.928116
 H         -39.130157     -103.673630      -32.867107
 H         -42.982040     -101.845245      -33.381664
 C         -38.196224     -103.771843      -32.200485
 C         -36.935528     -103.574806      -33.081745
 C         -38.017250     -104.249794      -30.899912
 C         -35.746090     -102.875488      -32.404018
 C         -36.685398     -103.733215      -30.219709
 C         -35.388035     -103.569481      -31.038994
 H         -37.123672     -102.965767      -33.941605
 H         -36.669598     -104.538757      -33.540565
 H         -38.867409     -104.124481      -30.164812
 H         -37.944073     -105.350060      -30.992609
 H         -35.969460     -101.768684      -32.217304
 H         -34.841335     -102.899200      -33.148941
 H         -36.521980     -104.407104      -29.327972
 H         -36.885021     -102.766144      -29.792000
 H         -34.599373     -102.900742      -30.518539
 H         -34.983337     -104.583008      -31.087500
