20
 generated by VMD
 C         -12.651917      -27.386734       -4.713977
 N         -13.541202      -28.042332       -4.639353
 H         -10.681436      -29.983940       -2.593745
 H         -10.649570      -28.509123       -3.529838
 C          -9.970016      -29.318483       -3.180949
 C          -9.474957      -30.060715       -4.401974
 C          -8.802532      -28.740553       -2.295047
 C          -8.584598      -29.155928       -5.249418
 C          -8.019411      -27.730526       -3.224877
 C          -7.421765      -28.556833       -4.398651
 H         -10.377737      -30.286985       -5.029784
 H          -9.016039      -30.974812       -4.157875
 H          -9.247937      -28.190178       -1.439925
 H          -8.143085      -29.578556       -1.980568
 H          -9.153193      -28.389362       -5.783844
 H          -8.164931      -29.803062       -6.042450
 H          -7.114661      -27.320408       -2.735091
 H          -8.596596      -26.931004       -3.620300
 H          -6.828427      -27.883427       -5.044446
 H          -6.662022      -29.310244       -4.054580
