20
 generated by VMD
 C         -11.071519      -32.887852       -8.719713
 N         -11.832937      -33.100555       -9.513187
 H         -12.153483      -33.755436       -6.499730
 H         -12.689533      -34.196056       -4.845346
 C         -12.412152      -34.603153       -5.805659
 C         -11.188307      -35.469093       -5.725484
 C         -13.653722      -35.349167       -6.329084
 C         -11.517727      -36.818523       -5.123705
 C         -13.882329      -36.715778       -5.662467
 C         -12.626284      -37.597672       -5.782260
 H         -10.444004      -34.939362       -5.137802
 H         -10.688692      -35.694080       -6.688824
 H         -14.520946      -34.708279       -6.152705
 H         -13.541630      -35.555202       -7.437773
 H         -11.805068      -36.641006       -4.066467
 H         -10.624933      -37.463093       -5.005687
 H         -14.814842      -37.236404       -6.139079
 H         -14.125646      -36.616879       -4.630998
 H         -12.752007      -38.497929       -5.244479
 H         -12.413127      -37.875576       -6.824753
