20
 generated by VMD
 C         -15.318600      -47.574535       -6.139337
 N         -15.525208      -46.665604       -5.533819
 H         -16.411007      -46.890102       -9.892226
 H         -15.185788      -46.771320      -11.162011
 C         -16.238985      -46.555161      -10.901642
 C         -16.405870      -45.045231      -10.833790
 C         -17.089380      -47.245502      -11.991663
 C         -16.238106      -44.464649      -12.195527
 C         -16.857367      -46.669289      -13.402870
 C         -17.100735      -45.138733      -13.268703
 H         -15.771420      -44.544014      -10.115021
 H         -17.418795      -44.897869      -10.399570
 H         -16.931414      -48.352169      -11.954849
 H         -18.149950      -47.133789      -11.732781
 H         -15.171673      -44.368885      -12.429351
 H         -16.613184      -43.419342      -12.238556
 H         -17.701096      -47.086189      -14.058625
 H         -15.891132      -46.912598      -13.845945
 H         -16.966608      -44.659698      -14.229538
 H         -18.140528      -45.055126      -12.902617
