20
 generated by VMD
 C         -19.919172      -50.364902      -10.212279
 N         -20.159000      -51.237911       -9.453835
 H         -17.328205      -49.055210      -10.087995
 H         -19.286777      -49.586388      -10.754535
 C         -17.121677      -49.054958      -11.155167
 C         -15.906236      -49.850105      -11.626122
 C         -17.664944      -47.946201      -12.002172
 C         -16.274582      -50.323994      -13.015088
 C         -17.750763      -48.260906      -13.474129
 C         -16.523087      -49.112144      -13.907687
 H         -15.775552      -50.729931      -10.914182
 H         -15.050003      -49.195736      -11.725913
 H         -18.663927      -47.750237      -11.581613
 H         -17.074530      -47.015553      -11.754166
 H         -17.205063      -50.908524      -13.008442
 H         -15.396952      -50.832874      -13.362974
 H         -17.694960      -47.334045      -14.076008
 H         -18.642790      -48.800156      -13.645597
 H         -16.664066      -49.448017      -14.947633
 H         -15.609900      -48.481876      -14.026343
