20
 generated by VMD
 C         -78.188629     -204.059616      -69.207527
 N         -79.132492     -204.031342      -69.935875
 H         -76.017487     -202.290802      -67.661682
 H         -77.499763     -204.042252      -68.380844
 C         -75.218323     -202.064560      -68.489708
 C         -75.322815     -200.662552      -68.928375
 C         -74.003288     -202.836472      -68.891968
 C         -74.811699     -200.445923      -70.300812
 C         -72.885094     -202.032211      -69.715912
 C         -73.430740     -201.107529      -70.770027
 H         -74.783203     -199.970657      -68.206947
 H         -76.347588     -200.426651      -68.815384
 H         -73.579292     -203.175919      -67.971863
 H         -74.208458     -203.779404      -69.316002
 H         -74.717430     -199.368439      -70.352097
 H         -75.616104     -200.834518      -70.935585
 H         -72.190979     -202.856522      -70.067772
 H         -72.220329     -201.450241      -69.070061
 H         -72.606804     -200.267181      -70.928497
 H         -73.560753     -201.668243      -71.807419
