20
 generated by VMD
 C         -28.829571      -81.425957      -27.697651
 N         -29.707033      -80.690903      -27.453678
 H         -29.308725      -82.313568      -24.063663
 H         -28.006113      -82.169426      -27.624071
 C         -29.611969      -83.336357      -23.933218
 C         -29.856466      -83.824432      -22.587160
 C         -30.216419      -84.058647      -25.101473
 C         -31.366993      -83.989128      -22.320414
 C         -31.717056      -84.275612      -24.872036
 C         -31.984894      -84.877861      -23.464630
 H         -29.562374      -83.057594      -21.884117
 H         -29.267492      -84.766006      -22.206600
 H         -30.094282      -83.462021      -26.045033
 H         -29.573845      -84.934372      -25.331173
 H         -32.023594      -83.097679      -22.334213
 H         -31.522993      -84.400223      -21.342308
 H         -32.030781      -84.814003      -25.783409
 H         -32.128971      -83.200439      -25.008245
 H         -33.069649      -85.018295      -23.295229
 H         -31.593023      -85.919250      -23.461178
