20
 generated by VMD
 C         -19.962158      -59.515087      -17.458754
 N         -19.366653      -58.878597      -18.234865
 H         -22.782860      -59.646378      -16.233829
 H         -20.716812      -60.052441      -16.682922
 C         -22.970814      -60.735962      -16.022156
 C         -23.356976      -61.566509      -17.277931
 C         -22.808165      -61.419518      -14.758432
 C         -22.892836      -63.013275      -17.150240
 C         -22.565977      -62.984291      -14.672564
 C         -23.314564      -63.626350      -15.814231
 H         -22.856358      -61.149757      -18.159599
 H         -24.412365      -61.595631      -17.357950
 H         -21.927608      -60.873150      -14.258851
 H         -23.833925      -61.335983      -14.360202
 H         -21.846228      -63.136414      -17.407553
 H         -23.327236      -63.620304      -17.989138
 H         -22.926441      -63.384686      -13.660897
 H         -21.490124      -63.243069      -14.908092
 H         -23.124266      -64.720131      -15.721864
 H         -24.420799      -63.525784      -15.579307
