20
 generated by VMD
 C         -41.204433     -101.401726      -32.625763
 N         -41.895882     -101.548759      -33.527618
 H         -38.623608     -103.351517      -32.430130
 H         -40.588409     -101.677589      -31.752729
 C         -37.737835     -102.865234      -32.083569
 C         -36.570145     -102.829086      -33.012394
 C         -37.513237     -103.062462      -30.545778
 C         -35.326496     -102.252228      -32.331623
 C         -36.204113     -102.449829      -29.987701
 C         -35.051903     -102.733528      -30.932848
 H         -36.614685     -102.152473      -33.875263
 H         -36.260593     -103.831673      -33.412376
 H         -38.336971     -102.750092      -29.874239
 H         -37.336788     -104.173988      -30.473335
 H         -35.374271     -101.168259      -32.380451
 H         -34.463657     -102.524513      -32.948185
 H         -35.871464     -102.857086      -28.991514
 H         -36.279102     -101.315735      -29.837545
 H         -34.098492     -102.349190      -30.411167
 H         -34.806232     -103.802391      -30.972435
