20
 generated by VMD
 C         -79.543442     -206.787872      -73.581871
 N         -80.401375     -206.048508      -73.332207
 H         -77.988297     -205.220840      -71.039856
 H         -78.728149     -207.432571      -73.682655
 C         -77.033150     -205.333115      -70.501320
 C         -76.010170     -204.330231      -70.865646
 C         -76.757866     -206.615448      -69.893028
 C         -74.569855     -204.566269      -70.261429
 C         -75.430328     -206.636353      -69.071823
 C         -74.337227     -206.045105      -69.903297
 H         -76.410240     -203.382477      -70.703323
 H         -75.976814     -204.427841      -71.972031
 H         -77.444679     -207.037903      -69.220612
 H         -76.738426     -207.385391      -70.670189
 H         -74.422928     -203.829559      -69.433632
 H         -73.934258     -204.276993      -71.160950
 H         -75.191246     -207.684708      -68.869797
 H         -75.612625     -206.218292      -68.120705
 H         -73.406448     -205.967300      -69.378235
 H         -74.246887     -206.793015      -70.711769
