20
 generated by VMD
 C         -60.099270     -171.342438      -55.297924
 N         -59.410252     -172.172592      -54.985580
 H         -62.895214     -170.316360      -56.259476
 H         -60.816662     -170.596329      -55.519787
 C         -63.422993     -169.530487      -56.848133
 C         -62.511429     -168.477707      -57.438519
 C         -64.820366     -169.102829      -56.715290
 C         -63.125675     -167.914444      -58.777718
 C         -65.286736     -168.565308      -58.108391
 C         -64.506409     -167.412643      -58.623371
 H         -61.439503     -168.988800      -57.764000
 H         -62.304268     -167.689651      -56.806152
 H         -65.454414     -169.961792      -56.658779
 H         -64.974983     -168.379974      -55.914028
 H         -63.077751     -168.797409      -59.418575
 H         -62.426830     -167.107132      -59.211407
 H         -66.356209     -168.322479      -57.996399
 H         -65.149147     -169.348450      -58.884727
 H         -64.988205     -167.249695      -59.566689
 H         -64.515709     -166.477539      -57.991978
