20
 generated by VMD
 C         -50.415989     -129.513687      -43.512218
 N         -50.827732     -129.659073      -44.533497
 H         -49.027992     -127.948128      -40.645786
 H         -49.841927     -129.258301      -42.628048
 C         -47.983585     -128.122223      -40.734058
 C         -47.566257     -129.599945      -40.667034
 C         -46.892826     -127.046951      -40.716164
 C         -46.364445     -129.880188      -41.534874
 C         -45.720852     -127.406990      -41.566555
 C         -45.305763     -128.819397      -41.392769
 H         -48.539612     -130.081573      -41.002163
 H         -47.328484     -129.878235      -39.690147
 H         -47.356392     -126.186180      -40.970177
 H         -46.550411     -126.969543      -39.633358
 H         -46.677818     -130.011353      -42.637241
 H         -45.905235     -130.713196      -41.022129
 H         -44.960995     -126.649567      -41.331257
 H         -45.965359     -127.209717      -42.614624
 H         -44.438454     -129.082214      -41.966026
 H         -44.776314     -128.828781      -40.412430
