20
 generated by VMD
 C         -41.489643     -119.841461      -34.172886
 N         -41.723091     -120.615532      -34.966908
 H         -43.403465     -118.934441      -37.027046
 H         -41.482910     -119.064171      -33.405396
 C         -43.811005     -118.494125      -37.902889
 C         -43.053440     -118.383049      -39.142605
 C         -45.240803     -117.953888      -37.912960
 C         -43.857964     -118.765450      -40.394814
 C         -46.060898     -118.161285      -39.137665
 C         -45.120129     -117.937088      -40.408966
 H         -42.099468     -118.956039      -39.192818
 H         -42.821198     -117.296043      -39.269165
 H         -45.864201     -118.294846      -37.085209
 H         -45.043964     -116.864105      -37.614208
 H         -44.151703     -119.874054      -40.354744
 H         -43.353928     -118.674034      -41.335228
 H         -47.017792     -117.516312      -39.256451
 H         -46.446419     -119.221031      -39.040695
 H         -45.652065     -118.011604      -41.393921
 H         -44.847961     -116.820107      -40.453781
