20
 generated by VMD
 C         -27.561228      -86.486290      -26.244696
 N         -28.476414      -86.548561      -27.000416
 H         -30.993185      -86.389656      -25.319620
 H         -26.592190      -86.369026      -25.632071
 C         -31.841274      -86.994675      -25.603178
 C         -32.852184      -87.400406      -24.452606
 C         -32.082092      -87.318481      -27.019428
 C         -34.313797      -87.486389      -24.976305
 C         -33.522911      -87.559494      -27.421230
 C         -34.393154      -88.131660      -26.380602
 H         -32.578175      -86.648705      -23.727415
 H         -32.597530      -88.520851      -24.114864
 H         -31.616125      -86.571724      -27.626999
 H         -31.509794      -88.248901      -27.145464
 H         -34.724983      -86.538025      -25.154566
 H         -34.978054      -88.006401      -24.416004
 H         -33.475719      -88.265114      -28.351368
 H         -33.974365      -86.658119      -27.808352
 H         -35.474205      -88.078590      -26.686357
 H         -34.143898      -89.299118      -26.193848
