20
 generated by VMD
 C         -44.443256     -122.151703      -36.000446
 N         -43.944530     -121.126068      -35.909370
 H         -45.074806     -122.694977      -39.478832
 H         -45.009407     -123.065308      -36.165680
 C         -44.863384     -121.631470      -39.505306
 C         -43.490818     -121.126778      -39.469646
 C         -45.968178     -120.668839      -39.180679
 C         -43.279751     -119.823883      -40.094791
 C         -45.684296     -119.365288      -39.842529
 C         -44.339268     -118.724953      -39.603504
 H         -42.867657     -121.860466      -40.073818
 H         -43.073914     -121.211304      -38.477131
 H         -46.990631     -121.066177      -39.304653
 H         -45.899033     -120.517250      -38.079216
 H         -43.323059     -119.852898      -41.152187
 H         -42.218235     -119.428055      -40.034019
 H         -46.609833     -118.776749      -39.703362
 H         -45.745136     -119.421730      -40.961891
 H         -44.175632     -117.708366      -40.126678
 H         -44.263935     -118.570923      -38.473930
