20
 generated by VMD
 C         -40.354313     -118.117912      -34.764465
 N         -39.430645     -117.495407      -35.049950
 H         -42.366318     -116.388809      -36.539387
 H         -41.152306     -118.858025      -34.453720
 C         -43.164360     -116.592194      -37.307690
 C         -42.844738     -116.954483      -38.718948
 C         -44.590557     -116.338158      -36.874088
 C         -44.006222     -117.702049      -39.393188
 C         -45.649670     -116.971008      -37.816772
 C         -45.329865     -116.939476      -39.329418
 H         -41.982342     -117.680359      -38.674847
 H         -42.570679     -116.013519      -39.299549
 H         -44.935833     -116.641884      -35.845577
 H         -44.746353     -115.251762      -36.900288
 H         -44.192081     -118.710159      -39.003391
 H         -43.763702     -117.791878      -40.458450
 H         -46.724072     -116.510162      -37.678421
 H         -45.825836     -117.930199      -37.277092
 H         -46.173721     -117.501587      -39.962460
 H         -45.191994     -115.861351      -39.731636
