20
 generated by VMD
 C         -71.080795     -198.902084      -64.469788
 N         -70.301682     -198.546127      -65.271271
 H         -72.549583     -196.665298      -66.339851
 H         -71.589394     -199.216125      -63.591328
 C         -72.971603     -195.940613      -67.038437
 C         -73.278236     -194.505951      -66.644012
 C         -73.697273     -196.374817      -68.298103
 C         -73.292847     -193.615311      -67.826096
 C         -74.793282     -195.468414      -68.711487
 C         -74.237411     -194.072342      -68.961227
 H         -72.534706     -194.200073      -65.932129
 H         -74.422791     -194.469528      -66.348663
 H         -73.027351     -196.445602      -69.189224
 H         -74.255394     -197.280594      -68.182915
 H         -72.266052     -193.465805      -68.169479
 H         -73.732681     -192.710281      -67.503983
 H         -75.586273     -195.279587      -68.038383
 H         -75.145493     -195.897476      -69.661591
 H         -73.599442     -194.123672      -69.904053
 H         -74.946564     -193.310318      -69.127571
