20
 generated by VMD
 C         -58.476086     -158.978348      -58.070442
 N         -59.084679     -159.345520      -57.175922
 H         -58.996418     -160.583344      -54.709332
 H         -57.964184     -158.633362      -58.924980
 C         -59.448978     -161.100418      -53.911831
 C         -58.618042     -161.302231      -52.684326
 C         -60.785130     -161.652908      -54.212837
 C         -59.520512     -161.172806      -51.427898
 C         -61.574375     -161.874634      -52.914959
 C         -60.611996     -162.218018      -51.671021
 H         -57.910316     -160.516586      -52.630928
 H         -58.225945     -162.341248      -52.927086
 H         -61.441364     -160.970886      -54.861034
 H         -60.538563     -162.572922      -54.808769
 H         -59.842514     -160.100327      -51.335415
 H         -58.963760     -161.208084      -50.458282
 H         -62.440338     -162.562698      -53.005978
 H         -62.018822     -160.892853      -52.579247
 H         -61.313129     -162.211456      -50.778244
 H         -60.176910     -163.274353      -51.710529
