20
 generated by VMD
 C         -28.496334      -74.117310      -18.559765
 N         -29.298109      -73.457237      -18.059757
 H         -25.736946      -72.301842      -18.722488
 H         -27.611301      -74.737289      -18.999670
 C         -25.554262      -72.205635      -19.832842
 C         -24.801023      -73.239891      -20.629658
 C         -25.689358      -70.907722      -20.551378
 C         -25.354639      -73.326744      -22.118027
 C         -26.260084      -71.041634      -21.896923
 C         -25.508377      -72.021500      -22.747761
 H         -24.886906      -74.230209      -20.012247
 H         -23.681833      -72.965317      -20.604416
 H         -26.189085      -70.281311      -19.853590
 H         -24.652283      -70.448654      -20.618725
 H         -26.367474      -73.813011      -22.229654
 H         -24.676641      -73.922050      -22.764111
 H         -26.379681      -70.063644      -22.498102
 H         -27.311714      -71.406082      -21.874643
 H         -26.041506      -72.260048      -23.696650
 H         -24.540211      -71.569145      -23.002762
