20
 generated by VMD
 C         -68.962822     -192.934906      -66.365761
 N         -68.073975     -193.422485      -66.911697
 H         -69.953613     -190.021133      -65.355911
 H         -69.860092     -192.504044      -66.069702
 C         -70.896347     -190.594223      -65.308640
 C         -71.761482     -190.743454      -66.534920
 C         -71.491974     -190.797256      -63.945091
 C         -72.704895     -192.013382      -66.259789
 C         -73.051598     -190.719376      -64.029526
 C         -73.623398     -191.640930      -65.119637
 H         -71.118134     -190.833755      -67.351425
 H         -72.339043     -189.801849      -66.790306
 H         -71.193489     -191.686249      -63.494587
 H         -70.975616     -190.001251      -63.314640
 H         -72.206924     -192.949722      -65.966087
 H         -73.289680     -192.235336      -67.191071
 H         -73.323135     -189.644394      -64.251495
 H         -73.454689     -190.860550      -63.066154
 H         -73.915466     -192.654816      -64.640388
 H         -74.479111     -191.233643      -65.384949
