20
 generated by VMD
 C         -31.705948      -78.936180      -26.445858
 N         -30.982220      -78.119476      -26.796133
 H         -28.769850      -80.858742      -25.155634
 H         -32.247551      -79.866203      -26.382542
 C         -28.896368      -81.133949      -24.145611
 C         -27.654083      -81.160454      -23.299479
 C         -29.894814      -82.257050      -23.842026
 C         -27.932711      -81.255119      -21.846418
 C         -30.208782      -82.250427      -22.410406
 C         -29.043179      -82.262245      -21.492304
 H         -26.953190      -80.367043      -23.490023
 H         -27.027527      -82.034409      -23.556877
 H         -30.885799      -82.238045      -24.387177
 H         -29.359324      -83.116188      -24.266195
 H         -28.439917      -80.259224      -21.628969
 H         -27.008265      -81.323990      -21.270233
 H         -30.676702      -83.173195      -22.181826
 H         -30.994764      -81.369499      -22.228239
 H         -29.489239      -82.013664      -20.542498
 H         -28.589064      -83.240189      -21.605362
