20
 generated by VMD
 C         -67.788818     -185.863098      -67.066696
 N         -68.648956     -185.463181      -67.771881
 H         -68.629578     -188.299347      -64.413132
 H         -67.039955     -186.240952      -66.441193
 C         -69.318710     -187.908508      -63.734344
 C         -68.985153     -186.558136      -63.180679
 C         -70.675507     -188.428070      -63.615898
 C         -69.401855     -186.499329      -61.687252
 C         -71.208710     -188.386826      -62.257217
 C         -70.858078     -187.001495      -61.524467
 H         -69.606346     -185.854126      -63.679314
 H         -67.906998     -186.481979      -63.268230
 H         -71.258720     -187.753830      -64.272789
 H         -70.628975     -189.443771      -64.004707
 H         -69.337463     -185.498581      -61.276051
 H         -68.551483     -186.983963      -61.155834
 H         -70.792755     -189.179779      -61.730957
 H         -72.247490     -188.557785      -62.105164
 H         -71.644615     -186.148331      -61.834400
 H         -71.094116     -187.117676      -60.404819
