20
 generated by VMD
 C         -79.177505     -207.237366      -75.671379
 N         -80.210297     -207.041885      -75.162697
 H         -77.209633     -208.902069      -73.331108
 H         -78.187653     -207.620224      -76.072128
 C         -77.298454     -208.842117      -72.215050
 C         -76.133141     -208.164398      -71.592888
 C         -78.005592     -209.951508      -71.572876
 C         -76.241554     -208.048492      -70.065002
 C         -78.213348     -209.537949      -70.094238
 C         -76.958900     -209.233902      -69.414818
 H         -75.967812     -207.213211      -72.149086
 H         -75.220177     -208.806656      -71.728653
 H         -79.004524     -210.059845      -71.975822
 H         -77.496887     -210.924026      -71.534271
 H         -76.738914     -207.056732      -69.874420
 H         -75.192589     -208.025253      -69.682747
 H         -78.707840     -210.371368      -69.555954
 H         -78.889153     -208.639389      -70.073166
 H         -76.827614     -209.008148      -68.389236
 H         -76.357323     -210.146591      -69.535843
