20
 generated by VMD
 C         -58.591961     -161.370407      -56.368237
 N         -58.417480     -160.230484      -56.481243
 H         -59.416985     -165.000702      -54.985420
 H         -58.717537     -162.437088      -56.252808
 C         -60.083744     -164.128860      -54.727638
 C         -59.783833     -163.600952      -53.293320
 C         -61.563488     -164.159714      -55.011459
 C         -60.308449     -162.072296      -53.188381
 C         -62.302029     -162.881104      -54.549164
 C         -61.859459     -162.121033      -53.276356
 H         -58.669392     -163.525146      -53.091114
 H         -60.446400     -164.218002      -52.589439
 H         -61.686607     -164.234161      -56.129932
 H         -61.974594     -165.014160      -54.465782
 H         -59.680874     -161.563309      -53.897713
 H         -59.921597     -161.617798      -52.255207
 H         -63.411972     -163.032578      -54.496788
 H         -62.304844     -162.166397      -55.492840
 H         -62.291706     -161.172928      -53.205830
 H         -62.257389     -162.652466      -52.380936
