20
 generated by VMD
 C         -53.048008     -146.821213      -44.791630
 N         -51.949909     -146.992447      -44.638905
 H         -54.598854     -146.553177      -48.036423
 H         -54.071316     -146.635284      -45.004070
 C         -54.158848     -145.571625      -48.085152
 C         -53.096107     -145.461670      -49.131672
 C         -54.970097     -144.350662      -47.728802
 C         -53.428772     -144.593536      -50.262867
 C         -55.326057     -143.566910      -49.037636
 C         -54.038063     -143.369125      -49.852314
 H         -52.853870     -146.493118      -49.367355
 H         -52.284412     -144.948944      -48.592060
 H         -55.921688     -144.669067      -47.252651
 H         -54.410698     -143.829651      -47.002747
 H         -54.144375     -145.286774      -50.899452
 H         -52.417187     -144.352890      -50.878910
 H         -55.703049     -142.514496      -48.697071
 H         -56.099632     -144.024109      -49.626331
 H         -54.303337     -142.870193      -50.810680
 H         -53.391380     -142.624069      -49.416626
