20
 generated by VMD
 C         -49.844990     -141.816986      -45.221935
 N         -49.284687     -142.857834      -45.277428
 H         -51.777103     -139.051559      -46.318535
 H         -50.227802     -140.807114      -45.099033
 C         -52.265583     -139.965164      -46.410145
 C         -52.396183     -140.069519      -47.953629
 C         -53.426628     -140.441208      -45.512444
 C         -52.934353     -141.437744      -48.322826
 C         -53.965324     -141.790543      -46.000969
 C         -54.253830     -141.756058      -47.494675
 H         -51.510086     -139.849091      -48.576099
 H         -53.009449     -139.207123      -48.176659
 H         -53.110622     -140.606216      -44.446529
 H         -54.393124     -139.906311      -45.327721
 H         -52.166824     -142.218781      -48.213493
 H         -53.052662     -141.601547      -49.379436
 H         -54.853611     -142.035706      -45.405075
 H         -53.277370     -142.622589      -45.888733
 H         -54.618336     -142.753860      -47.743507
 H         -55.112026     -141.230103      -47.832294
