20
 generated by VMD
 C         -22.665257      -55.565094      -16.727861
 N         -23.096472      -54.449272      -16.782845
 H         -19.512009      -55.502792      -14.678403
 H         -22.532461      -56.506432      -16.415621
 C         -19.655981      -56.560364      -14.604936
 C         -20.747793      -56.891857      -13.656900
 C         -18.768862      -57.650616      -15.284760
 C         -21.025356      -58.398693      -13.409746
 C         -19.081011      -59.102074      -14.810408
 C         -19.635319      -59.216846      -13.361043
 H         -21.666031      -56.334202      -13.997802
 H         -20.417793      -56.473511      -12.672912
 H         -18.911003      -57.568039      -16.422466
 H         -17.765844      -57.374790      -14.981268
 H         -21.570822      -58.975830      -14.221740
 H         -21.600920      -58.525921      -12.496963
 H         -18.091667      -59.664700      -14.897746
 H         -19.777845      -59.539455      -15.523330
 H         -19.881094      -60.229916      -13.011478
 H         -18.972023      -58.724144      -12.700043
