20
 generated by VMD
 C         -11.454452      -32.250999       -8.923272
 N         -12.194387      -32.699078       -9.601723
 H         -11.666080      -33.819405       -6.459769
 H         -12.218073      -34.143810       -4.821283
 C         -12.006588      -34.615559       -5.796710
 C         -10.933943      -35.657337       -5.575560
 C         -13.185278      -35.229996       -6.513534
 C         -11.480380      -36.764355       -4.673651
 C         -13.741525      -36.386997       -5.735333
 C         -12.715865      -37.445595       -5.326056
 H         -10.019890      -35.201321       -5.193748
 H         -10.559805      -36.036289       -6.554248
 H         -14.061624      -34.549385       -6.635955
 H         -12.848025      -35.563786       -7.492082
 H         -11.629612      -36.428799       -3.621586
 H         -10.694783      -37.491611       -4.497519
 H         -14.483509      -36.868267       -6.347610
 H         -14.343250      -36.064983       -4.872062
 H         -13.242562      -38.114975       -4.618603
 H         -12.398849      -38.096832       -6.212656
