20
 generated by VMD
 C         -40.714104     -100.055359      -29.799084
 N         -40.426491     -100.266411      -28.697756
 H         -37.438499      -99.702209      -30.480988
 H         -40.987499     -100.118492      -30.872915
 C         -36.389442      -99.397270      -30.822412
 C         -35.871216      -99.515930      -32.205734
 C         -35.345631      -99.431732      -29.684868
 C         -34.891731      -98.391304      -32.487141
 C         -34.349686      -98.477821      -30.020575
 C         -33.831127      -98.397766      -31.436148
 H         -36.621506      -99.323738      -33.027721
 H         -35.527374     -100.526230      -32.328999
 H         -35.849522      -99.267487      -28.673874
 H         -34.862373     -100.389977      -29.598061
 H         -35.380352      -97.375862      -32.741589
 H         -34.390152      -98.653046      -33.505398
 H         -33.454563      -98.593864      -29.423582
 H         -34.833164      -97.547668      -29.824537
 H         -33.439541      -97.350647      -31.532059
 H         -33.021442      -99.080147      -31.763203
