20
 generated by VMD
 C         -10.951668      -34.232258       -8.734612
 N         -11.236144      -33.130795       -8.907188
 H         -11.559528      -38.007915       -8.024410
 H         -12.162061      -37.304970       -6.556238
 C         -12.353687      -38.039986       -7.342602
 C         -12.482478      -39.308861       -6.572343
 C         -13.624369      -37.667923       -8.025277
 C         -13.614142      -39.282448       -5.613735
 C         -14.863394      -37.758877       -7.092972
 C         -14.958642      -39.023903       -6.303479
 H         -11.551693      -39.394112       -5.977969
 H         -12.575397      -40.124149       -7.334475
 H         -13.629462      -36.638344       -8.426249
 H         -13.859590      -38.426731       -8.768086
 H         -13.466445      -38.459282       -4.887868
 H         -13.640200      -40.316174       -5.109089
 H         -15.763412      -37.644821       -7.686991
 H         -14.862886      -36.932365       -6.398000
 H         -15.742234      -38.944832       -5.592347
 H         -15.223708      -39.872066       -6.947992
