20
 generated by VMD
 C         -65.840836     -177.684250      -56.916515
 N         -66.275986     -176.621796      -57.127975
 H         -64.878052     -175.717911      -59.446800
 H         -65.474960     -178.658356      -56.568470
 C         -64.582069     -174.746933      -59.360584
 C         -65.510529     -173.720718      -58.647545
 C         -63.492207     -174.305908      -60.365372
 C         -65.250252     -172.178024      -59.008621
 C         -63.142681     -172.895676      -60.141850
 C         -64.335793     -172.024048      -60.279694
 H         -65.373405     -173.811920      -57.631325
 H         -66.594757     -174.018097      -58.826767
 H         -62.614555     -174.951599      -60.117462
 H         -63.875736     -174.650879      -61.362961
 H         -64.822662     -171.652100      -58.114399
 H         -66.160675     -171.657608      -59.279778
 H         -62.486485     -172.589890      -61.018330
 H         -62.583267     -172.895126      -59.230423
 H         -64.167099     -170.961334      -60.550770
 H         -65.017944     -172.390991      -60.974823
