20
 generated by VMD
 C         -43.267021     -121.159782      -35.805222
 N         -43.417229     -120.512955      -34.876289
 H         -44.507637     -122.163979      -38.849060
 H         -43.154446     -121.924423      -36.626869
 C         -44.621231     -121.123291      -39.311676
 C         -43.356281     -120.524620      -39.739624
 C         -45.793915     -120.329109      -38.819756
 C         -43.529434     -119.208229      -40.443466
 C         -45.833801     -118.918831      -39.411793
 C         -44.433773     -118.224335      -39.453819
 H         -42.926777     -121.302353      -40.474056
 H         -42.719929     -120.440575      -38.853340
 H         -46.828190     -120.740860      -38.979469
 H         -45.627289     -120.161369      -37.718674
 H         -44.052658     -119.388428      -41.367256
 H         -42.581249     -118.655731      -40.542957
 H         -46.508221     -118.223053      -38.931347
 H         -46.050289     -119.049187      -40.392731
 H         -44.601852     -117.204002      -39.807392
 H         -43.886803     -118.118256      -38.512505
