20
 generated by VMD
 C         -11.531667      -39.095196       -6.362284
 N         -11.690880      -38.886837       -7.463848
 H         -12.699714      -41.474232       -9.024936
 H         -13.778173      -40.067051       -8.543234
 C         -13.772546      -41.126720       -8.949690
 C         -14.504951      -42.065304       -8.040138
 C         -14.423308      -41.025078      -10.326266
 C         -15.975742      -41.727322       -7.901954
 C         -15.914413      -40.746059      -10.189749
 C         -16.637833      -41.679802       -9.259315
 H         -14.043014      -41.961990       -7.067234
 H         -14.483746      -43.111332       -8.409440
 H         -13.991786      -40.189125      -10.817267
 H         -14.262769      -41.978504      -10.886600
 H         -16.106634      -40.756676       -7.449471
 H         -16.403004      -42.498924       -7.265894
 H         -16.366774      -40.813423      -11.229123
 H         -16.106884      -39.686108       -9.935233
 H         -17.644663      -41.290356       -9.072880
 H         -16.749714      -42.660339       -9.788590
