20
 generated by VMD
 C         -60.416641     -155.840607      -54.242908
 N         -61.074852     -156.411545      -55.070965
 H         -59.376701     -155.531921      -51.194469
 H         -59.811954     -155.457626      -53.437809
 C         -58.332134     -155.470840      -51.478409
 C         -57.483723     -154.628052      -50.545734
 C         -57.584362     -156.236877      -52.570515
 C         -56.311852     -155.341446      -49.852283
 C         -56.350994     -156.975113      -51.875008
 C         -55.514240     -156.012482      -50.952366
 H         -58.156250     -154.005783      -49.834915
 H         -57.097923     -153.842514      -51.158073
 H         -58.193775     -157.085220      -53.004723
 H         -57.264507     -155.757919      -53.453190
 H         -56.672146     -156.172577      -49.283081
 H         -55.686714     -154.544296      -49.347172
 H         -55.710434     -157.416733      -52.724720
 H         -56.702190     -157.688995      -51.194565
 H         -54.646263     -156.523407      -50.467503
 H         -55.097416     -155.272736      -51.636353
