20
 generated by VMD
 C         -57.946419     -164.493546      -56.641159
 N         -57.238609     -163.704712      -57.166573
 H         -60.415302     -164.229309      -53.838047
 H         -58.477859     -165.267593      -56.104412
 C         -61.041943     -164.762711      -54.453659
 C         -61.864223     -165.834641      -53.920498
 C         -61.279018     -164.376846      -55.830715
 C         -63.237644     -165.242477      -53.850250
 C         -62.755222     -163.976791      -55.957882
 C         -63.743832     -164.879105      -55.243820
 H         -61.469135     -166.194122      -52.991814
 H         -61.925652     -166.689713      -54.580860
 H         -60.502586     -163.636887      -56.185059
 H         -61.212559     -165.282043      -56.543892
 H         -63.248787     -164.406357      -53.114918
 H         -63.904774     -165.975403      -53.405842
 H         -62.883858     -164.007294      -57.083683
 H         -62.828056     -162.919632      -55.632637
 H         -64.598335     -164.341110      -55.217587
 H         -63.997326     -165.729294      -55.790844
