20
 generated by VMD
 C         -28.522850      -86.723206      -26.843483
 N         -27.556391      -87.178268      -26.449421
 H         -31.027565      -88.447792      -25.216627
 H         -29.542959      -86.258118      -27.042023
 C         -31.935722      -88.022659      -25.614824
 C         -33.096169      -88.065331      -24.645176
 C         -32.146461      -87.931213      -27.076628
 C         -34.535656      -87.662132      -25.288460
 C         -33.577778      -87.439865      -27.529598
 C         -34.696712      -88.019493      -26.766220
 H         -32.837257      -87.445122      -23.665401
 H         -33.355087      -89.122337      -24.418055
 H         -31.410175      -87.300659      -27.651226
 H         -32.197784      -88.914200      -27.505306
 H         -34.671474      -86.619255      -25.218399
 H         -35.428566      -87.954071      -24.690989
 H         -33.557976      -87.635925      -28.572899
 H         -33.621792      -86.287758      -27.466129
 H         -35.638508      -87.578918      -27.225115
 H         -34.673161      -89.161957      -26.983591
