20
 generated by VMD
 C         -68.473633     -189.335678      -67.224976
 N         -67.358513     -189.226044      -67.003418
 H         -68.617455     -188.183517      -63.786926
 H         -69.509766     -189.470596      -67.572266
 C         -69.621468     -188.420166      -63.399612
 C         -70.194839     -189.736496      -63.444462
 C         -70.460236     -187.301666      -62.932308
 C         -71.428680     -189.693588      -64.373581
 C         -71.816185     -187.358658      -63.617229
 C         -72.516151     -188.675507      -63.792313
 H         -70.561867     -190.184448      -62.433544
 H         -69.304337     -190.347397      -63.882771
 H         -70.513252     -187.272507      -61.838467
 H         -69.918381     -186.304779      -63.113857
 H         -71.882317     -190.679459      -64.441330
 H         -71.155296     -189.344528      -65.371643
 H         -71.928864     -186.728043      -64.532196
 H         -72.320274     -186.657516      -62.918915
 H         -72.885292     -189.103882      -62.756935
 H         -73.376183     -188.659744      -64.486328
