20
 generated by VMD
 C         -78.142563     -203.669128      -69.397255
 N         -79.093430     -204.323044      -69.656494
 H         -75.495270     -202.106613      -67.518646
 H         -77.377098     -203.038620      -68.912560
 C         -74.871811     -201.802048      -68.304382
 C         -75.113487     -200.381256      -68.710617
 C         -73.827812     -202.645569      -68.827736
 C         -74.806213     -200.185379      -70.217079
 C         -72.899773     -201.887253      -69.752388
 C         -73.706902     -201.075775      -70.782516
 H         -74.404526     -199.704895      -68.206703
 H         -76.147507     -200.066742      -68.480331
 H         -73.304741     -203.135147      -68.017365
 H         -74.273506     -203.337036      -69.407082
 H         -74.394646     -199.162582      -70.335915
 H         -75.634209     -200.148102      -70.882896
 H         -72.107460     -202.511093      -70.228233
 H         -72.248405     -201.111313      -69.237877
 H         -73.118721     -200.390732      -71.440895
 H         -74.347466     -201.728882      -71.555527
