20
 generated by VMD
 C         -31.499821      -75.664467      -23.748795
 N         -30.950687      -76.120468      -24.619942
 H         -29.630003      -78.290047      -22.066479
 H         -31.778742      -75.150581      -22.722391
 C         -28.530025      -78.167191      -21.951181
 C         -27.616577      -78.319679      -23.142130
 C         -27.973595      -78.143646      -20.587755
 C         -26.333517      -77.442337      -23.057238
 C         -26.815594      -77.154091      -20.528967
 C         -25.751419      -77.401810      -21.567001
 H         -28.231878      -78.122559      -24.192526
 H         -27.197823      -79.366402      -23.031271
 H         -28.781693      -77.892250      -19.893433
 H         -27.567173      -79.107262      -20.423464
 H         -26.702000      -76.441208      -23.268999
 H         -25.539728      -77.774467      -23.758841
 H         -26.358778      -77.102516      -19.515390
 H         -27.243570      -76.129013      -20.671839
 H         -24.787601      -76.777985      -21.594301
 H         -25.325865      -78.356033      -21.363468
