20
 generated by VMD
 C         -28.083263      -81.245285      -27.567873
 N         -29.227776      -81.159828      -27.480490
 H         -29.361189      -83.051804      -24.905649
 H         -27.043343      -81.273483      -27.770691
 C         -30.186300      -83.620605      -24.522783
 C         -30.157650      -83.943954      -22.975054
 C         -30.803581      -84.796745      -25.318251
 C         -31.584055      -84.336258      -22.557598
 C         -32.226341      -84.970795      -24.812786
 C         -32.211216      -85.428688      -23.364550
 H         -29.812311      -82.988335      -22.437590
 H         -29.470404      -84.823349      -22.707092
 H         -30.915369      -84.540443      -26.341757
 H         -30.076391      -85.615791      -25.165714
 H         -32.213551      -83.462463      -22.638996
 H         -31.414392      -84.713112      -21.470766
 H         -32.791576      -85.718452      -25.491520
 H         -32.801060      -84.027641      -24.878786
 H         -33.244385      -85.594017      -23.078856
 H         -31.711048      -86.455101      -23.394823
