20
 generated by VMD
 C         -12.340123      -27.555586       -4.611553
 N         -13.124141      -28.144299       -5.134964
 H         -10.769794      -30.584229       -2.712964
 H         -11.061214      -28.991610       -3.639680
 C         -10.273902      -29.764933       -3.322829
 C          -9.692592      -30.410181       -4.614288
 C          -9.250397      -29.070499       -2.439744
 C          -8.629641      -29.509315       -5.338742
 C          -8.352530      -28.092405       -3.153946
 C          -7.636221      -28.813940       -4.395293
 H         -10.561361      -30.688341       -5.297389
 H          -9.204275      -31.343094       -4.385685
 H          -9.806610      -28.560081       -1.654182
 H          -8.727529      -29.813047       -1.860258
 H          -9.178735      -28.727432       -5.899478
 H          -8.061025      -30.169556       -6.063276
 H          -7.544263      -27.626310       -2.533666
 H          -8.841415      -27.254953       -3.580961
 H          -7.142870      -28.059269       -5.000775
 H          -6.975103      -29.556236       -3.923105
