20
 generated by VMD
 C         -37.071529      -98.329765      -25.707743
 N         -36.398827      -98.448311      -26.637177
 H         -36.275681      -95.764053      -28.429281
 H         -37.701908      -98.325066      -24.803057
 C         -35.677967      -95.528572      -29.339556
 C         -35.699604      -96.364731      -30.594666
 C         -34.397972      -94.687744      -29.209938
 C         -35.097858      -95.706406      -31.814116
 C         -33.819366      -94.084900      -30.492126
 C         -33.732502      -95.053566      -31.567902
 H         -36.738277      -96.705536      -30.894793
 H         -35.188545      -97.312263      -30.359795
 H         -34.720325      -93.916794      -28.550768
 H         -33.707390      -95.356667      -28.731844
 H         -35.847847      -94.949066      -31.956923
 H         -35.108269      -96.350861      -32.693867
 H         -32.813057      -93.771492      -30.381546
 H         -34.288383      -93.139671      -30.930441
 H         -33.637730      -94.641029      -32.458149
 H         -32.962723      -95.951378      -31.402924
