20
 generated by VMD
 C         -50.443695     -131.858826      -47.080727
 N         -49.998119     -132.239151      -48.036499
 H         -48.781979     -131.429245      -43.604969
 H         -50.966980     -131.555069      -46.207066
 C         -48.744530     -132.285217      -42.991093
 C         -49.482819     -133.498230      -43.530819
 C         -48.507462     -132.114105      -41.466145
 C         -49.107170     -134.760925      -42.759296
 C         -48.348392     -133.393112      -40.800400
 C         -49.275188     -134.521591      -41.262920
 H         -49.277096     -133.436768      -44.581219
 H         -50.603920     -133.336594      -43.426842
 H         -47.729164     -131.449432      -41.350853
 H         -49.520893     -131.823868      -41.127850
 H         -48.073170     -134.963806      -43.044117
 H         -49.657272     -135.590714      -43.220234
 H         -48.479309     -133.503677      -39.691666
 H         -47.387581     -133.780075      -41.078442
 H         -49.014877     -135.421417      -40.682541
 H         -50.327339     -134.186722      -40.995003
