20
 generated by VMD
 C         -41.092857     -102.463867      -35.080734
 N         -41.546783     -103.080437      -35.968304
 H         -39.802876     -104.375595      -32.649422
 H         -40.742828     -101.941002      -34.229465
 C         -38.743587     -104.788536      -32.476181
 C         -37.472881     -104.384941      -32.914272
 C         -38.781342     -106.201546      -31.879238
 C         -36.388111     -104.358459      -31.801077
 C         -37.785175     -106.154236      -30.726103
 C         -36.374714     -105.705910      -31.067305
 H         -37.356518     -103.478867      -33.424198
 H         -37.151787     -105.102699      -33.677635
 H         -39.693520     -106.523064      -31.472069
 H         -38.485107     -106.955795      -32.669548
 H         -36.539021     -103.522408      -31.110123
 H         -35.397659     -104.082413      -32.155113
 H         -37.597008     -107.078796      -30.319653
 H         -38.384480     -105.523865      -30.044136
 H         -35.694374     -105.685493      -30.175781
 H         -35.972481     -106.467865      -31.789261
