20
 generated by VMD
 C         -11.863582      -39.556164       -6.949517
 N         -10.856874      -39.603760       -6.459477
 H         -13.023195      -40.962418       -9.039197
 H         -14.438705      -39.852882       -8.993960
 C         -14.128703      -40.890259       -9.182201
 C         -14.790056      -41.724514       -8.036818
 C         -14.583092      -41.355740      -10.546026
 C         -16.322840      -41.878593       -8.120381
 C         -16.115294      -41.450550      -10.682774
 C         -16.747620      -42.268085       -9.516756
 H         -14.554935      -41.360691       -7.009625
 H         -14.267691      -42.734291       -8.066238
 H         -14.097055      -40.736324      -11.290167
 H         -14.097154      -42.363457      -10.767914
 H         -16.792850      -40.943977       -7.771116
 H         -16.745749      -42.608479       -7.384394
 H         -16.397242      -41.943188      -11.684370
 H         -16.512480      -40.445713      -10.620682
 H         -17.797815      -42.146038       -9.620750
 H         -16.507801      -43.322105       -9.639331
