20
 generated by VMD
 C         -49.734123     -127.753418      -40.363789
 N         -50.677319     -127.827217      -41.017178
 H         -46.790310     -127.341118      -42.298393
 H         -49.004810     -127.703217      -39.549149
 C         -46.747902     -126.801910      -41.308842
 C         -45.862621     -127.281128      -40.231113
 C         -46.839878     -125.300362      -41.468216
 C         -44.409122     -126.736732      -40.595436
 C         -45.489357     -124.826340      -41.796761
 C         -44.399761     -125.233475      -40.767536
 H         -45.823265     -128.399628      -40.312096
 H         -46.055363     -127.013153      -39.258743
 H         -47.577560     -125.029961      -42.198120
 H         -47.391590     -124.703583      -40.592072
 H         -44.221554     -127.356415      -41.456104
 H         -43.609600     -127.051689      -39.947300
 H         -45.574802     -123.725555      -41.914669
 H         -45.161812     -125.239624      -42.745518
 H         -43.395496     -124.984261      -41.258228
 H         -44.538242     -124.642448      -39.823498
