20
 generated by VMD
 C         -23.251097      -54.180958      -15.057225
 N         -24.205429      -53.614109      -15.382463
 H         -19.331127      -54.668705      -15.661902
 H         -22.382425      -54.982384      -14.683799
 C         -19.449688      -55.140434      -14.703688
 C         -19.017603      -54.457439      -13.518490
 C         -19.202032      -56.648277      -14.953974
 C         -18.551430      -55.400047      -12.464735
 C         -18.194744      -57.300602      -13.925842
 C         -17.444790      -56.316101      -13.000417
 H         -19.855200      -53.863087      -13.132104
 H         -18.158499      -53.890812      -13.911291
 H         -20.065613      -57.228996      -14.989937
 H         -18.670221      -56.584244      -15.941091
 H         -19.393467      -55.986652      -12.078595
 H         -18.263002      -54.814457      -11.545053
 H         -17.477837      -57.909954      -14.508385
 H         -18.740946      -58.052261      -13.261826
 H         -16.931208      -56.888962      -12.232855
 H         -16.561607      -55.829998      -13.488338
