20
 generated by VMD
 C         -29.254726      -73.570595      -19.355858
 N         -29.843550      -74.533623      -19.230570
 H         -25.497320      -73.080902      -18.786146
 H         -28.887348      -72.643532      -19.709900
 C         -25.619789      -73.065552      -19.924665
 C         -25.011518      -74.237160      -20.748877
 C         -25.626057      -71.651947      -20.497501
 C         -25.669037      -74.125168      -22.188259
 C         -26.277977      -71.622215      -21.798767
 C         -25.626991      -72.688095      -22.636930
 H         -25.147840      -75.182266      -20.258486
 H         -23.843918      -74.003059      -20.837015
 H         -26.007069      -71.058403      -19.699221
 H         -24.570696      -71.328842      -20.563257
 H         -26.702368      -74.430664      -22.200331
 H         -25.205050      -74.864655      -22.818653
 H         -26.264784      -70.773514      -22.401100
 H         -27.295006      -71.982620      -21.784843
 H         -26.193651      -72.641197      -23.558025
 H         -24.504740      -72.473732      -22.829283
