20
 generated by VMD
 C         -29.399378      -90.193954      -25.112980
 N         -29.039293      -91.307945      -25.340736
 H         -32.288788      -90.851006      -26.754589
 H         -29.571655      -89.185471      -24.786654
 C         -33.044960      -90.734779      -27.530741
 C         -34.394165      -91.491714      -27.525166
 C         -32.972340      -89.772087      -28.609938
 C         -35.635979      -90.543747      -27.402178
 C         -34.041557      -88.726700      -28.375011
 C         -35.495316      -89.256844      -28.108507
 H         -34.421253      -92.286613      -26.779127
 H         -34.413944      -92.094421      -28.449533
 H         -31.977024      -89.341103      -28.589012
 H         -33.098522      -90.212830      -29.635386
 H         -35.611885      -90.492241      -26.340990
 H         -36.493683      -91.065544      -27.706625
 H         -34.101978      -87.948883      -29.130159
 H         -33.857220      -88.146629      -27.468910
 H         -36.214890      -88.503494      -27.779276
 H         -35.876831      -89.246193      -29.187317
