20
 generated by VMD
 C         -19.114351      -63.291866      -16.878326
 N         -20.174194      -62.896980      -16.996710
 H         -23.019499      -63.709675      -17.051712
 H         -18.080120      -63.526035      -16.453758
 C         -23.743755      -64.402122      -17.353252
 C         -24.357573      -64.190346      -18.691662
 C         -24.569061      -65.060440      -16.352589
 C         -24.656307      -65.438118      -19.399040
 C         -24.915213      -66.424034      -17.009569
 C         -25.524065      -66.235153      -18.402628
 H         -23.670387      -63.512371      -19.352295
 H         -25.191505      -63.446114      -18.698229
 H         -23.952112      -65.244743      -15.440743
 H         -25.401779      -64.464340      -16.264774
 H         -23.683928      -66.008263      -19.540215
 H         -25.097395      -65.410866      -20.396713
 H         -25.597195      -66.943260      -16.269657
 H         -24.029661      -67.084435      -17.043402
 H         -25.548429      -67.259094      -18.935673
 H         -26.488531      -65.759239      -18.349022
