20
 generated by VMD
 C         -28.599545      -81.383728      -27.669012
 N         -29.591814      -80.830589      -27.433548
 H         -28.615101      -83.290649      -24.274141
 H         -27.588213      -81.883301      -27.844374
 C         -29.662951      -83.525032      -24.121086
 C         -29.981472      -83.652870      -22.685179
 C         -30.393715      -84.212616      -25.199629
 C         -31.488792      -84.178421      -22.392031
 C         -31.905416      -84.405159      -24.807201
 C         -32.023594      -85.092659      -23.460979
 H         -29.772022      -82.769630      -22.179966
 H         -29.359612      -84.524734      -22.391344
 H         -30.364305      -83.696014      -26.140421
 H         -29.922131      -85.197876      -25.231638
 H         -32.245579      -83.433006      -22.395267
 H         -31.447327      -84.829803      -21.417006
 H         -32.369362      -85.103416      -25.598045
 H         -32.484104      -83.464561      -24.869812
 H         -33.028965      -85.197678      -23.204721
 H         -31.563589      -86.103577      -23.438879
