20
 generated by VMD
 C         -52.596249     -146.884232      -45.413254
 N         -52.911366     -147.370911      -44.373638
 H         -55.093845     -147.048752      -48.407879
 H         -52.253757     -146.238754      -46.230366
 C         -54.574547     -146.118774      -48.423065
 C         -53.241795     -145.990906      -49.230595
 C         -55.250721     -144.849060      -47.979961
 C         -53.336742     -144.852234      -50.264664
 C         -55.320686     -143.690567      -49.098164
 C         -53.869823     -143.582550      -49.725262
 H         -53.083405     -146.913498      -49.763634
 H         -52.285030     -145.769714      -48.646503
 H         -56.239918     -144.876480      -47.492020
 H         -54.502975     -144.485367      -47.141029
 H         -54.071178     -145.182327      -51.072193
 H         -52.280624     -144.641754      -50.583431
 H         -55.689796     -142.762314      -48.714294
 H         -55.919094     -143.967896      -50.010532
 H         -53.903259     -142.819382      -50.543289
 H         -53.209003     -143.079163      -48.996830
