20
 generated by VMD
 C         -79.560432     -206.551849      -75.109062
 N         -79.921585     -206.240814      -74.030800
 H         -78.609032     -206.596146      -71.290611
 H         -79.260803     -206.965668      -76.018967
 C         -77.642014     -206.732437      -70.751244
 C         -76.491760     -205.972641      -71.315857
 C         -77.257378     -208.067017      -70.146233
 C         -75.228676     -205.872360      -70.411476
 C         -76.147339     -207.967896      -69.121216
 C         -74.947510     -207.256393      -69.753235
 H         -76.888260     -205.009033      -71.371490
 H         -76.232231     -206.208954      -72.383080
 H         -78.050041     -208.532028      -69.496010
 H         -76.998711     -208.843323      -70.858948
 H         -75.341423     -205.226959      -69.522766
 H         -74.398361     -205.412231      -70.911469
 H         -75.901894     -208.975235      -68.820457
 H         -76.561562     -207.394257      -68.243233
 H         -74.290375     -207.109985      -68.894363
 H         -74.484680     -208.035873      -70.323967
