20
 generated by VMD
 C         -22.689817      -52.462830      -11.970012
 N         -23.774427      -52.412270      -11.563029
 H         -20.089537      -53.723198      -14.172352
 H         -21.548349      -52.569592      -12.565500
 C         -18.990805      -53.557556      -14.201143
 C         -18.371229      -52.230194      -14.556271
 C         -18.081274      -54.471107      -13.332680
 C         -16.791267      -52.149216      -14.362800
 C         -17.102636      -53.756866      -12.419275
 C         -16.181211      -52.722607      -13.095819
 H         -18.741068      -51.358330      -13.960719
 H         -18.659151      -51.971905      -15.546688
 H         -18.771866      -55.094719      -12.782187
 H         -17.456409      -55.190155      -13.952236
 H         -16.455111      -51.093910      -14.267901
 H         -16.260599      -52.539497      -15.256436
 H         -16.514481      -54.485432      -11.878071
 H         -17.691896      -53.168041      -11.641941
 H         -15.878327      -51.961586      -12.386884
 H         -15.182117      -53.122284      -13.287443
