20
 generated by VMD
 C         -48.757988     -126.454834      -38.686718
 N         -49.397346     -127.363419      -38.505108
 H         -46.336407     -123.709885      -38.521652
 H         -48.186554     -125.515877      -38.622459
 C         -45.655296     -123.627525      -39.377037
 C         -44.489292     -124.429916      -39.638126
 C         -45.702446     -122.312523      -40.072868
 C         -44.025379     -124.528717      -41.043930
 C         -45.330158     -122.365944      -41.568073
 C         -44.134041     -123.270660      -41.901634
 H         -44.741570     -125.427811      -39.345562
 H         -43.530170     -124.032707      -39.186943
 H         -46.730202     -121.867348      -39.874214
 H         -45.088161     -121.572029      -39.585384
 H         -44.667297     -125.307724      -41.449409
 H         -43.102448     -125.029831      -41.273449
 H         -45.022713     -121.397263      -41.902531
 H         -46.183220     -122.453796      -42.161602
 H         -44.027950     -123.513557      -42.986526
 H         -43.172779     -122.708511      -41.649811
