20
 generated by VMD
 C         -77.370331     -202.916550      -68.676659
 N         -77.553368     -203.886261      -68.044678
 H         -75.396454     -201.607498      -67.565445
 H         -77.101723     -201.945938      -68.978584
 C         -74.785912     -201.105072      -68.235336
 C         -75.103600     -199.708572      -68.581726
 C         -73.807518     -201.901932      -69.024979
 C         -74.299515     -199.091492      -69.677513
 C         -73.104874     -201.053040      -70.151306
 C         -74.001579     -200.065063      -70.831818
 H         -75.050247     -199.001205      -67.668320
 H         -76.165207     -199.636475      -68.849121
 H         -73.073540     -202.308029      -68.365479
 H         -74.402168     -202.698669      -69.534111
 H         -73.395683     -198.667114      -69.306656
 H         -74.970398     -198.356491      -70.095169
 H         -72.776390     -201.580154      -71.034584
 H         -72.187927     -200.560455      -69.756485
 H         -73.399323     -199.519440      -71.695686
 H         -74.797638     -200.605637      -71.279610
