20
 generated by VMD
 C         -67.967361     -178.669785      -58.099957
 N         -66.913376     -178.347382      -57.731686
 H         -65.442421     -176.621796      -58.988716
 H         -68.954697     -178.836090      -58.430794
 C         -65.120285     -175.673370      -59.307152
 C         -65.955620     -174.734329      -60.074841
 C         -63.763466     -175.735245      -59.905159
 C         -65.402260     -173.312622      -60.063461
 C         -63.088264     -174.300812      -59.858223
 C         -63.999065     -173.198074      -60.424431
 H         -66.960442     -174.662064      -59.743034
 H         -66.003334     -175.180252      -61.085728
 H         -63.054890     -176.407257      -59.442177
 H         -63.811176     -175.921188      -60.956993
 H         -65.524345     -173.134903      -59.024807
 H         -66.056396     -172.780396      -60.719479
 H         -62.107662     -174.597473      -60.297749
 H         -62.930981     -174.012360      -58.821156
 H         -63.622166     -172.164978      -60.386356
 H         -63.906013     -173.422241      -61.508930
