20
 generated by VMD
 C         -40.578156     -100.253029      -30.303276
 N         -41.257000     -100.465118      -29.398289
 H         -37.447090     -100.904182      -30.534914
 H         -40.010803      -99.805595      -31.168623
 C         -36.546928     -100.337700      -30.793507
 C         -36.112843      -99.979103      -32.252777
 C         -35.277496     -100.244637      -29.822054
 C         -35.170067      -98.694084      -32.448490
 C         -34.467464      -98.929802      -30.123058
 C         -33.941696      -98.934174      -31.523981
 H         -37.064331      -99.919342      -32.870335
 H         -35.609997     -100.896652      -32.524612
 H         -35.507477     -100.344513      -28.693775
 H         -34.684422     -101.092850      -30.122545
 H         -35.695698      -97.832115      -32.041367
 H         -34.741116      -98.490181      -33.464001
 H         -33.593704      -98.737518      -29.490459
 H         -35.066448      -98.076797      -30.065559
 H         -33.179916      -98.160660      -31.699831
 H         -33.388878      -99.889320      -31.764484
