20
 generated by VMD
 C         -22.421659      -67.947304      -16.300758
 N         -21.417969      -67.848526      -15.761312
 H         -24.144440      -65.319130      -18.665510
 H         -23.236012      -67.928154      -17.151327
 C         -24.539230      -66.357773      -18.786430
 C         -23.910461      -66.912132      -20.072392
 C         -25.994049      -66.581490      -18.590412
 C         -24.446497      -68.406464      -20.264055
 C         -26.692772      -67.950127      -19.097521
 C         -26.010744      -68.384956      -20.406820
 H         -22.881781      -66.945518      -20.096113
 H         -24.366941      -66.305443      -20.898396
 H         -26.294224      -66.259216      -17.520624
 H         -26.467407      -65.765869      -19.223967
 H         -24.141323      -69.157761      -19.510448
 H         -24.042519      -68.823921      -21.173927
 H         -27.744967      -67.658623      -19.215744
 H         -26.760317      -68.694275      -18.336910
 H         -26.319052      -69.394730      -20.748190
 H         -26.285059      -67.616211      -21.163639
