20
 generated by VMD
 C         -11.651142      -42.235371       -7.112635
 N         -12.154220      -42.246746       -6.129606
 H         -14.641197      -43.118404       -8.242677
 H         -14.872336      -41.915985       -9.453629
 C         -15.226027      -42.925831       -9.209896
 C         -16.729649      -42.905308       -9.005356
 C         -14.964840      -43.944641      -10.261447
 C         -17.523537      -42.519737      -10.253664
 C         -15.568764      -43.530960      -11.581538
 C         -17.055195      -43.409534      -11.445150
 H         -16.976543      -42.208042       -8.186953
 H         -17.085190      -43.968292       -8.752936
 H         -13.923064      -44.052906      -10.452179
 H         -15.379653      -44.929840       -9.954316
 H         -17.365580      -41.450035      -10.491293
 H         -18.596882      -42.643612      -10.064090
 H         -15.349795      -44.259880      -12.398393
 H         -15.066001      -42.606953      -11.945931
 H         -17.459654      -43.078239      -12.380390
 H         -17.570009      -44.346127      -11.294028
