20
 generated by VMD
 C         -33.604900      -96.407181      -25.284563
 N         -32.771206      -97.024635      -24.814495
 H         -34.834450      -93.482964      -27.364761
 H         -34.494110      -95.806892      -25.728697
 C         -34.795170      -93.406929      -28.430000
 C         -35.983036      -93.826660      -29.206139
 C         -33.559692      -93.289215      -29.180510
 C         -36.295933      -93.037811      -30.442801
 C         -33.733109      -92.534164      -30.573032
 C         -35.018486      -92.914841      -31.365456
 H         -36.861122      -93.897263      -28.492559
 H         -35.731911      -94.832932      -29.508993
 H         -32.823986      -92.716217      -28.551489
 H         -33.121174      -94.244972      -29.474218
 H         -36.665134      -91.972313      -30.252329
 H         -37.101517      -93.474701      -31.022469
 H         -32.775764      -92.755150      -31.186239
 H         -33.662956      -91.482109      -30.497839
 H         -34.928051      -92.357048      -32.276382
 H         -34.682518      -93.991982      -31.620880
