20
 generated by VMD
 C         -28.892220      -81.445251      -27.632301
 N         -29.740732      -80.640335      -27.497751
 H         -29.191439      -82.176430      -23.962643
 H         -28.206001      -82.106438      -27.991659
 C         -29.629194      -83.163567      -23.899370
 C         -29.814939      -83.876389      -22.530943
 C         -30.148336      -83.979279      -25.044931
 C         -31.298729      -83.986572      -22.363811
 C         -31.630720      -84.279099      -24.832602
 C         -31.999187      -84.769791      -23.488737
 H         -29.337921      -83.357719      -21.653515
 H         -29.489649      -84.845573      -22.638145
 H         -29.920000      -83.521133      -26.013371
 H         -29.674566      -84.947113      -25.093941
 H         -31.654800      -82.946602      -22.432991
 H         -31.692327      -84.527237      -21.400229
 H         -32.005619      -85.032600      -25.566536
 H         -32.172298      -83.396057      -25.060453
 H         -33.121944      -84.746666      -23.398384
 H         -31.808605      -85.809990      -23.282810
