20
 generated by VMD
 C         -12.724396      -28.651354       -5.959277
 N         -13.025429      -27.682016       -5.491483
 H         -11.591483      -31.330437       -3.603590
 H         -11.366719      -29.915255       -4.546403
 C         -10.824912      -30.681324       -4.030585
 C          -9.879441      -31.438919       -4.955683
 C         -10.113532      -30.093441       -2.811034
 C          -8.539499      -30.650955       -5.357325
 C          -8.908232      -29.242342       -3.107184
 C          -7.915069      -29.882986       -4.089303
 H         -10.333207      -31.723934       -5.842645
 H          -9.482577      -32.342392       -4.413492
 H         -10.839886      -29.508478       -2.195688
 H          -9.766825      -30.911055       -2.197150
 H          -8.880504      -29.853094       -5.986884
 H          -7.851436      -31.330044       -5.821155
 H          -8.459272      -28.937925       -2.174286
 H          -9.266730      -28.275333       -3.556495
 H          -7.140450      -29.126297       -4.528241
 H          -7.510410      -30.697720       -3.465911
