20
 generated by VMD
 C         -28.486475      -82.497375      -26.344208
 N         -27.764984      -82.713737      -27.223551
 H         -31.516182      -83.806053      -26.491920
 H         -29.266315      -82.232590      -25.610847
 C         -31.314589      -84.669479      -25.773344
 C         -30.826540      -84.460983      -24.356089
 C         -31.958071      -86.024033      -26.100925
 C         -31.791706      -84.933090      -23.342312
 C         -32.996513      -86.332901      -25.009783
 C         -32.363163      -86.336655      -23.647224
 H         -30.727224      -83.364685      -24.282785
 H         -29.785877      -84.974213      -24.222469
 H         -32.487427      -86.202049      -27.064112
 H         -31.126402      -86.667999      -26.172447
 H         -32.674927      -84.301826      -23.400146
 H         -31.377182      -84.925545      -22.219582
 H         -33.575726      -87.256462      -25.169668
 H         -33.711521      -85.550209      -25.044064
 H         -33.131786      -86.443924      -22.832836
 H         -31.640171      -87.062614      -23.410872
