20
 generated by VMD
 C         -47.774422     -125.268303      -39.057106
 N         -47.650543     -126.288254      -38.531742
 H         -45.805943     -123.080505      -37.870731
 H         -47.799995     -124.230637      -39.460579
 C         -45.348404     -123.103554      -38.915215
 C         -44.376881     -124.127602      -39.365910
 C         -45.644302     -121.893524      -39.764385
 C         -44.691654     -124.436920      -40.848392
 C         -45.763348     -122.257645      -41.170612
 C         -44.699390     -123.204803      -41.722012
 H         -44.481941     -125.051437      -38.941227
 H         -43.369350     -123.739426      -39.100727
 H         -46.612614     -121.327042      -39.570381
 H         -44.907631     -121.133812      -39.650940
 H         -45.435913     -125.241226      -41.077652
 H         -43.754734     -125.064224      -41.103542
 H         -46.013069     -121.268890      -41.796524
 H         -46.759880     -122.857552      -41.326923
 H         -44.948235     -123.503365      -42.709057
 H         -43.713539     -122.780472      -41.782143
