20
 generated by VMD
 C         -14.081367      -28.166777       -3.323490
 N         -14.050338      -27.215168       -3.924918
 H         -10.182688      -28.640333       -2.618810
 H          -9.945231      -27.408064       -4.017772
 C          -9.513444      -28.136442       -3.304915
 C          -8.934912      -29.181059       -4.254879
 C          -8.400088      -27.582617       -2.443743
 C          -7.810572      -28.702852       -5.113319
 C          -7.280214      -26.983530       -3.396569
 C          -6.697336      -28.074022       -4.237729
 H          -9.778912      -29.451408       -4.976747
 H          -8.792610      -30.037386       -3.677053
 H          -8.873560      -26.802567       -1.860939
 H          -7.961320      -28.376389       -1.861940
 H          -8.033466      -27.963646       -5.923303
 H          -7.406195      -29.596586       -5.706652
 H          -6.504989      -26.511972       -2.755548
 H          -7.691529      -26.202646       -3.999268
 H          -5.951953      -27.678139       -4.914281
 H          -6.175641      -28.839151       -3.653907
