20
 generated by VMD
 C         -13.394805      -29.631937       -7.360880
 N         -13.557302      -29.163095       -8.363605
 H         -11.555560      -30.333641       -4.756954
 H         -10.061911      -30.330799       -3.611871
 C         -10.696206      -30.909824       -4.364296
 C          -9.770931      -31.456429       -5.483492
 C         -11.369019      -32.024078       -3.524694
 C          -8.773322      -32.379070       -4.887899
 C         -10.251944      -32.953320       -2.981679
 C          -9.361680      -33.525650       -4.152159
 H          -9.186110      -30.694286       -5.999959
 H         -10.427167      -31.886110       -6.306869
 H         -11.926019      -31.627520       -2.655451
 H         -12.070251      -32.583786       -4.201114
 H          -8.013146      -31.877132       -4.249875
 H          -8.253896      -32.832714       -5.730580
 H         -10.767336      -33.858177       -2.488696
 H          -9.708135      -32.470394       -2.215019
 H          -8.493329      -34.107616       -3.721607
 H         -10.001844      -34.132317       -4.811489
