20
 generated by VMD
 C         -18.837486      -49.936573       -9.512397
 N         -19.533548      -50.847145       -9.572223
 H         -16.526014      -47.351238       -9.967544
 H         -17.904848      -49.193958       -9.503005
 C         -16.559898      -47.735954      -11.002160
 C         -15.712368      -48.867615      -11.472249
 C         -17.480642      -47.115967      -11.939784
 C         -16.344852      -49.730560      -12.613026
 C         -17.944952      -47.947483      -13.153318
 C         -16.944963      -48.892307      -13.713166
 H         -15.490068      -49.639343      -10.680622
 H         -14.704770      -48.522556      -11.706833
 H         -18.345608      -46.801556      -11.388299
 H         -17.083534      -46.211773      -12.356194
 H         -17.081966      -50.505280      -12.227305
 H         -15.545277      -50.403034      -12.996271
 H         -18.467661      -47.279133      -13.888690
 H         -18.741135      -48.597279      -12.863068
 H         -17.319672      -49.567268      -14.541611
 H         -16.057657      -48.287086      -14.088392
