20
 generated by VMD
 C         -40.448093     -118.836227      -35.492435
 N         -39.564945     -118.280296      -35.002365
 H         -43.414482     -116.569397      -36.061668
 H         -41.437584     -119.046852      -36.007225
 C         -43.849110     -116.927055      -36.975327
 C         -43.025379     -117.376144      -38.136154
 C         -45.155334     -116.281952      -37.401302
 C         -43.785179     -118.203957      -39.147728
 C         -45.845791     -117.109337      -38.572758
 C         -44.995697     -117.476501      -39.709988
 H         -42.354980     -118.154335      -37.685589
 H         -42.539993     -116.395378      -38.435764
 H         -45.859192     -116.205437      -36.520157
 H         -45.017250     -115.265297      -37.803646
 H         -44.007370     -119.132904      -38.635193
 H         -43.139935     -118.376518      -40.032219
 H         -46.748310     -116.589859      -38.961967
 H         -46.341801     -117.916641      -38.141289
 H         -45.490475     -118.280708      -40.339390
 H         -44.680119     -116.741501      -40.329327
