20
 generated by VMD
 C         -28.187822      -73.600281      -18.375917
 N         -29.027746      -73.389839      -17.583961
 H         -25.295658      -71.957199      -18.778759
 H         -27.240208      -73.825775      -18.774738
 C         -25.435410      -71.979202      -19.815008
 C         -24.578102      -72.745964      -20.669725
 C         -25.893242      -70.755653      -20.426992
 C         -25.212200      -73.101074      -21.966648
 C         -26.203756      -70.726227      -21.933498
 C         -25.587370      -71.789909      -22.753166
 H         -24.305698      -73.702080      -20.183094
 H         -23.524834      -72.276222      -20.985210
 H         -26.766878      -70.268242      -19.902725
 H         -25.116106      -70.027733      -20.333820
 H         -26.070810      -73.807930      -21.701162
 H         -24.536085      -73.790054      -22.537996
 H         -25.932581      -69.811035      -22.454821
 H         -27.312136      -70.788429      -22.028250
 H         -26.178837      -71.991837      -23.630672
 H         -24.586420      -71.468376      -23.186722
