20
 generated by VMD
 C         -40.531075     -106.743523      -37.410694
 N         -39.462189     -106.680283      -37.836502
 H         -38.475590     -108.596275      -34.812572
 H         -41.486462     -106.984924      -36.969959
 C         -39.248524     -108.921669      -34.084576
 C         -38.679691     -109.906067      -33.120983
 C         -40.646690     -108.762421      -34.395695
 C         -39.657566     -110.452377      -32.134312
 C         -41.568604     -109.321472      -33.195911
 C         -41.075134     -110.752937      -32.787449
 H         -37.802761     -109.668404      -32.542976
 H         -38.531277     -110.804321      -33.694149
 H         -40.905804     -107.715866      -34.651669
 H         -40.822239     -109.379097      -35.338200
 H         -39.792049     -109.712036      -31.276775
 H         -39.211514     -111.379295      -31.609814
 H         -42.651428     -109.482346      -33.600140
 H         -41.459541     -108.563461      -32.350468
 H         -41.786842     -111.224358      -32.010651
 H         -41.030388     -111.426270      -33.614647
