20
 generated by VMD
 C         -19.520105      -58.141224      -17.161076
 N         -19.236351      -58.692093      -18.177708
 H         -23.164326      -59.555702      -16.384342
 H         -19.648817      -57.766270      -16.162310
 C         -22.980024      -60.658840      -16.163713
 C         -23.841469      -61.640907      -16.940714
 C         -22.213594      -61.091396      -14.935507
 C         -23.399672      -63.065163      -16.931429
 C         -21.958876      -62.604832      -14.766960
 C         -23.128105      -63.403141      -15.439728
 H         -24.051121      -61.338581      -17.958450
 H         -24.809820      -61.599609      -16.528141
 H         -21.312990      -60.563702      -14.852459
 H         -22.893682      -60.674213      -14.199355
 H         -22.515709      -63.220982      -17.534050
 H         -24.157339      -63.676231      -17.344973
 H         -22.085985      -62.829971      -13.728538
 H         -21.020281      -63.003330      -15.130360
 H         -22.904753      -64.475807      -15.481942
 H         -24.033735      -63.284889      -14.771484
