20
 generated by VMD
 C         -11.520943      -41.979115       -7.045729
 N         -11.983175      -42.309006       -6.102953
 H         -14.735713      -43.277649       -8.158729
 H         -14.958178      -41.929710       -9.392369
 C         -15.265877      -42.949371       -9.095029
 C         -16.778147      -42.748775       -8.974742
 C         -14.872077      -43.841938      -10.276022
 C         -17.559010      -42.533386      -10.276180
 C         -15.595107      -43.402546      -11.584620
 C         -17.114080      -43.478195      -11.450882
 H         -16.870949      -41.833954       -8.379482
 H         -17.258835      -43.505768       -8.408771
 H         -13.784367      -43.630199      -10.418161
 H         -15.118504      -44.887814      -10.026216
 H         -17.297337      -41.577007      -10.707780
 H         -18.630896      -42.604183      -10.047513
 H         -15.311209      -44.129337      -12.394441
 H         -15.277101      -42.438683      -11.891121
 H         -17.594109      -43.175529      -12.427002
 H         -17.480526      -44.492947      -11.210897
