20
 generated by VMD
 C         -41.114265     -104.618561      -35.842049
 N         -42.082851     -104.896973      -36.413628
 H         -38.307156     -103.927452      -33.104733
 H         -40.325233     -104.086197      -35.306946
 C         -38.091724     -104.940880      -32.930435
 C         -36.887379     -105.454872      -32.122089
 C         -39.050831     -105.974701      -33.315140
 C         -37.123325     -106.585693      -31.191652
 C         -39.438805     -107.083199      -32.244873
 C         -38.098488     -107.719803      -31.729626
 H         -36.575222     -104.586655      -31.538570
 H         -35.999359     -105.658089      -32.821972
 H         -39.996353     -105.471870      -33.453213
 H         -38.744789     -106.461548      -34.252884
 H         -37.764294     -106.345558      -30.305401
 H         -36.115723     -106.954384      -30.956049
 H         -40.207428     -107.848274      -32.518063
 H         -39.939003     -106.576607      -31.316677
 H         -38.366470     -108.365402      -30.856993
 H         -37.582634     -108.374519      -32.449512
