20
 generated by VMD
 C         -11.954082      -31.498909       -8.254570
 N         -12.069009      -30.656086       -7.558933
 H         -11.455718      -34.707535       -7.864109
 H         -12.904280      -34.029980       -7.039781
 C         -11.923942      -34.652855       -6.878844
 C         -10.839730      -33.996449       -6.072928
 C         -12.161080      -36.052647       -6.307294
 C         -11.250719      -33.721409       -4.605474
 C         -12.568280      -35.925934       -4.837909
 C         -11.515074      -35.109093       -4.003787
 H         -10.476090      -33.049786       -6.473991
 H          -9.899112      -34.601276       -6.129400
 H         -12.967736      -36.549683       -6.884017
 H         -11.255227      -36.646450       -6.478641
 H         -12.024753      -32.954746       -4.514445
 H         -10.428308      -33.309738       -4.046214
 H         -12.627178      -36.903305       -4.389523
 H         -13.575713      -35.457691       -4.752086
 H         -11.908354      -34.994083       -2.971707
 H         -10.637574      -35.696747       -3.948734
