20
 generated by VMD
 C         -33.641975      -96.746071      -25.906343
 N         -34.758785      -96.605560      -26.195261
 H         -35.204647      -93.833443      -27.486509
 H         -32.519810      -96.622025      -25.625156
 C         -34.980457      -94.207031      -28.462059
 C         -35.989285      -94.773445      -29.381815
 C         -33.618317      -93.858292      -28.943840
 C         -36.056854      -94.007950      -30.668289
 C         -33.793537      -92.988152      -30.214529
 C         -34.708920      -93.733284      -31.271221
 H         -36.993736      -94.705772      -28.871037
 H         -35.737633      -95.813599      -29.517513
 H         -33.219158      -93.215942      -28.174929
 H         -32.890324      -94.576340      -29.191698
 H         -36.557518      -92.993973      -30.580915
 H         -36.665897      -94.503227      -31.408644
 H         -32.721767      -92.823853      -30.663393
 H         -34.068447      -91.957649      -30.033825
 H         -34.551800      -93.105766      -32.253361
 H         -34.129593      -94.647560      -31.407913
