20
 generated by VMD
 C         -44.264629     -121.878410      -35.915539
 N         -43.855148     -120.823013      -35.869968
 H         -44.938591     -122.678978      -39.309891
 H         -44.649277     -122.879028      -35.861584
 C         -44.829308     -121.630501      -39.452374
 C         -43.395645     -121.070351      -39.669552
 C         -45.904854     -120.688126      -39.156162
 C         -43.349190     -119.619720      -40.144024
 C         -45.717693     -119.228134      -39.569065
 C         -44.304626     -118.626503      -39.458954
 H         -42.856510     -121.708572      -40.302807
 H         -42.866150     -121.192169      -38.760475
 H         -46.902561     -120.973259      -39.479580
 H         -45.951508     -120.654213      -37.994026
 H         -43.340061     -119.517326      -41.230000
 H         -42.364803     -119.077782      -39.887791
 H         -46.308567     -118.357285      -39.188370
 H         -45.930786     -119.097885      -40.674686
 H         -44.281654     -117.528778      -39.827366
 H         -44.064198     -118.726990      -38.365128
