20
 generated by VMD
 C         -68.133690     -188.222839      -66.595337
 N         -68.820724     -188.597809      -67.427467
 H         -68.326378     -187.251755      -63.606300
 H         -67.441254     -188.066055      -65.808983
 C         -69.330559     -187.618240      -63.585293
 C         -69.371559     -188.958328      -63.052029
 C         -70.435699     -186.615005      -63.470921
 C         -70.711098     -189.702240      -63.403496
 C         -71.771515     -187.299698      -63.756382
 C         -71.900284     -188.639816      -63.080894
 H         -69.128075     -188.983200      -61.921867
 H         -68.537323     -189.518478      -63.585999
 H         -70.456543     -186.146912      -62.452763
 H         -70.253433     -185.828644      -64.138268
 H         -70.799950     -190.659363      -62.932976
 H         -70.722672     -189.863556      -64.503365
 H         -71.935814     -187.435287      -64.868729
 H         -72.604515     -186.613159      -63.542152
 H         -71.921822     -188.498276      -61.967472
 H         -72.862373     -189.324600      -63.153580
