20
 generated by VMD
 C         -30.979324      -78.284996      -26.224375
 N         -31.695547      -77.565842      -25.656029
 H         -29.442572      -77.893257      -23.333115
 H         -30.272690      -79.160797      -26.425552
 C         -28.794882      -78.599632      -22.774933
 C         -27.361603      -78.679420      -23.057693
 C         -29.639452      -79.667091      -22.170570
 C         -26.604399      -79.699959      -22.185604
 C         -28.864500      -80.690857      -21.305130
 C         -27.488771      -80.990517      -21.894789
 H         -26.987440      -77.620377      -22.834045
 H         -27.177654      -79.105843      -24.091028
 H         -30.371693      -79.222145      -21.550882
 H         -30.134047      -80.318993      -22.871485
 H         -26.354637      -79.253983      -21.210009
 H         -25.533644      -79.825417      -22.637117
 H         -29.444283      -81.574150      -21.265324
 H         -28.744667      -80.503067      -20.274900
 H         -26.965479      -81.647842      -21.183989
 H         -27.667360      -81.678215      -22.828123
