20
 generated by VMD
 C         -77.919983     -209.986282      -76.414825
 N         -77.318054     -210.964493      -76.152405
 H         -80.438011     -212.476059      -74.756378
 H         -78.367752     -208.969818      -76.679466
 C         -80.190033     -213.229767      -74.045837
 C         -78.801682     -213.223404      -73.595833
 C         -81.180420     -213.883118      -73.152580
 C         -78.710701     -212.877747      -72.102058
 C         -81.035606     -213.807907      -71.662415
 C         -79.547806     -213.862350      -71.395660
 H         -78.356377     -212.436310      -74.145752
 H         -78.157471     -214.038467      -73.955750
 H         -82.111511     -213.422714      -73.446396
 H         -81.165215     -214.917404      -73.427109
 H         -79.157387     -211.932327      -71.855568
 H         -77.687813     -212.989120      -71.703621
 H         -81.626091     -214.649277      -71.130760
 H         -81.513634     -212.853302      -71.216965
 H         -79.340370     -213.698151      -70.225166
 H         -79.236153     -214.863922      -71.690308
