20
 generated by VMD
 C         -27.944546      -81.820602      -26.566423
 N         -28.158091      -82.281204      -27.615185
 H         -30.355457      -84.011406      -26.194405
 H         -27.928917      -81.461426      -25.462536
 C         -31.105225      -84.512573      -25.464834
 C         -30.725346      -84.246384      -24.108818
 C         -31.831068      -85.659538      -25.848553
 C         -31.785612      -84.779991      -23.027424
 C         -32.873749      -86.133537      -24.894772
 C         -32.303894      -86.200256      -23.437304
 H         -30.607090      -83.165878      -23.781231
 H         -29.761539      -84.777550      -23.955097
 H         -32.248611      -85.478889      -26.854433
 H         -31.028154      -86.478218      -25.906599
 H         -32.663677      -83.957939      -22.909136
 H         -31.324127      -84.697220      -22.029924
 H         -33.313709      -87.073746      -25.121019
 H         -33.742004      -85.418625      -24.909765
 H         -33.050076      -86.455093      -22.765438
 H         -31.521790      -86.933968      -23.280592
