20
 generated by VMD
 C         -29.389845      -89.696304      -25.734823
 N         -29.519346      -88.576317      -25.402178
 H         -31.440989      -90.584679      -27.394844
 H         -29.490273      -90.690109      -25.971498
 C         -32.465717      -90.106529      -27.361221
 C         -33.577812      -90.445099      -26.332012
 C         -32.972919      -89.343071      -28.580772
 C         -34.420029      -89.289055      -26.085091
 C         -33.852119      -88.115944      -28.307234
 C         -34.864731      -88.486969      -27.288404
 H         -33.040146      -90.834457      -25.402685
 H         -34.171490      -91.359062      -26.682640
 H         -32.156837      -88.952484      -29.221802
 H         -33.528862      -90.158409      -29.215813
 H         -33.853493      -88.540268      -25.463335
 H         -35.392780      -89.670242      -25.545080
 H         -34.263149      -87.705566      -29.316612
 H         -33.176281      -87.354485      -27.855322
 H         -35.413250      -87.618484      -26.795702
 H         -35.752060      -88.935455      -27.800171
