20
 generated by VMD
 C         -50.436649     -130.962006      -46.431431
 N         -50.289486     -131.149658      -47.541439
 H         -48.614193     -131.765701      -44.315319
 H         -50.800636     -130.775467      -45.443878
 C         -48.671810     -132.281891      -43.318913
 C         -49.274361     -133.641418      -43.126316
 C         -48.533226     -131.472794      -42.046688
 C         -48.527042     -134.437393      -41.998383
 C         -47.877056     -132.258667      -40.949795
 C         -48.506393     -133.644409      -40.702774
 H         -49.409340     -134.152756      -44.168922
 H         -50.285923     -133.526108      -42.822483
 H         -47.941647     -130.584076      -42.549652
 H         -49.557648     -131.062515      -41.759949
 H         -47.486607     -134.750275      -42.336205
 H         -49.111599     -135.367889      -41.869076
 H         -48.033184     -131.711716      -40.004150
 H         -46.722321     -132.370804      -41.233425
 H         -47.997478     -134.083496      -39.826374
 H         -49.519814     -133.535385      -40.169975
