20
 generated by VMD
 C         -69.486946     -181.272202      -61.188049
 N         -69.406067     -180.200485      -61.659836
 H         -67.276428     -178.874023      -59.727131
 H         -69.711548     -182.235565      -60.806942
 C         -66.308426     -178.548080      -59.880726
 C         -65.636986     -178.981674      -61.070137
 C         -65.576401     -177.776245      -58.793491
 C         -65.175568     -177.689117      -61.797699
 C         -65.177719     -176.435181      -59.411350
 C         -64.455032     -176.649216      -60.761803
 H         -66.196106     -179.631836      -61.790714
 H         -64.656891     -179.453674      -60.950359
 H         -66.280174     -177.796463      -57.937771
 H         -64.756958     -178.383759      -58.508411
 H         -66.099617     -177.014252      -62.254612
 H         -64.343452     -177.903046      -62.579552
 H         -64.713570     -175.819611      -58.638874
 H         -66.073128     -175.868423      -59.823574
 H         -64.475082     -175.768784      -61.408909
 H         -63.401203     -176.929123      -60.626823
