20
 generated by VMD
 C         -41.099998     -104.469467      -35.783859
 N         -42.033833     -104.910332      -36.343723
 H         -37.897141     -104.214081      -33.718960
 H         -40.163757     -104.321663      -35.337509
 C         -38.093506     -104.939766      -32.963512
 C         -36.874962     -105.336403      -32.129021
 C         -39.158226     -105.987213      -33.224785
 C         -37.170792     -106.516045      -31.200756
 C         -39.327061     -106.989700      -32.194523
 C         -38.035442     -107.682228      -31.719114
 H         -36.448189     -104.500450      -31.626139
 H         -36.168747     -105.577477      -32.964191
 H         -40.157150     -105.570915      -33.276741
 H         -38.926346     -106.500298      -34.191532
 H         -37.808521     -106.247696      -30.311003
 H         -36.162151     -106.937843      -30.952513
 H         -39.926998     -107.795265      -32.655281
 H         -39.973732     -106.689728      -31.281155
 H         -38.152042     -108.534409      -30.985834
 H         -37.475334     -108.055038      -32.584370
