20
 generated by VMD
 C         -78.388924     -204.292984      -70.374573
 N         -79.460503     -203.956848      -70.093651
 H         -76.502380     -203.389191      -68.462822
 H         -77.412140     -204.619431      -70.456848
 C         -75.634109     -202.910294      -68.878960
 C         -75.746933     -201.503052      -69.464355
 C         -74.289818     -203.460999      -68.713875
 C         -74.836449     -201.499771      -70.820801
 C         -73.077843     -202.771622      -69.317749
 C         -73.424522     -201.640305      -70.379982
 H         -75.276825     -200.776230      -68.858131
 H         -76.826401     -201.187531      -69.657631
 H         -74.140305     -203.867172      -67.682152
 H         -74.368652     -204.514664      -69.270790
 H         -74.980118     -200.595169      -71.438103
 H         -75.152756     -202.393646      -71.427635
 H         -72.553658     -203.487839      -69.866539
 H         -72.377808     -202.401306      -68.582253
 H         -73.316177     -200.689285      -69.920502
 H         -72.655441     -201.607864      -71.161713
