20
 generated by VMD
 C         -29.705502      -87.915031      -25.166119
 N         -29.038633      -88.810081      -25.519875
 H         -31.331928      -89.538445      -27.676014
 H         -30.436598      -87.042542      -25.026291
 C         -32.372158      -89.771034      -27.543221
 C         -32.844246      -89.639832      -26.100800
 C         -33.468807      -89.453690      -28.573746
 C         -33.428036      -88.261192      -25.802933
 C         -34.093204      -88.179909      -28.169043
 C         -34.577484      -88.105942      -26.741816
 H         -32.044434      -89.927055      -25.370840
 H         -33.589241      -90.517021      -25.790794
 H         -33.101803      -89.345154      -29.629786
 H         -34.131016      -90.332336      -28.501963
 H         -32.789463      -87.365166      -26.120356
 H         -33.854511      -88.146118      -24.844461
 H         -34.912655      -88.003761      -28.893162
 H         -33.350838      -87.385353      -28.253193
 H         -35.377266      -87.376953      -26.565025
 H         -35.286366      -88.918556      -26.635738
