20
 generated by VMD
 C         -50.890953     -129.446091      -45.227318
 N         -50.932507     -129.889389      -44.184620
 H         -49.157570     -128.592148      -41.999645
 H         -50.759819     -129.261902      -46.270828
 C         -48.149670     -128.880432      -41.488407
 C         -47.876163     -130.278992      -41.057999
 C         -47.273090     -127.865089      -40.931488
 C         -46.456360     -130.731827      -41.359734
 C         -45.829353     -128.150177      -41.355782
 C         -45.472923     -129.625320      -40.903717
 H         -48.711796     -130.861755      -41.523499
 H         -48.021439     -130.269684      -39.912216
 H         -47.441444     -126.819061      -41.302383
 H         -47.370205     -127.787140      -39.881760
 H         -46.403214     -130.933609      -42.404972
 H         -46.105896     -131.599808      -40.856266
 H         -45.122799     -127.560997      -40.664471
 H         -45.638111     -127.993187      -42.406521
 H         -44.454262     -130.016342      -41.198994
 H         -45.587524     -129.650879      -39.836685
