20
 generated by VMD
 C         -44.550404     -122.235863      -36.002098
 N         -43.973198     -121.288651      -35.787579
 H         -45.105400     -122.720505      -39.789242
 H         -44.870808     -123.186020      -36.322361
 C         -44.875122     -121.699127      -39.606716
 C         -43.492157     -121.182343      -39.417759
 C         -45.940361     -120.676514      -39.261909
 C         -43.192165     -119.897598      -40.068161
 C         -45.830841     -119.320793      -39.871601
 C         -44.359779     -118.829170      -39.796165
 H         -42.727608     -121.942627      -39.764210
 H         -43.389786     -121.152748      -38.331158
 H         -47.017311     -120.925018      -39.476223
 H         -45.807747     -120.555817      -38.206486
 H         -43.275463     -119.980339      -41.211815
 H         -42.261181     -119.481575      -39.673183
 H         -46.493042     -118.597198      -39.360306
 H         -45.876633     -119.326141      -40.959507
 H         -44.187969     -118.023705      -40.431633
 H         -44.302624     -118.512238      -38.803707
