20
 generated by VMD
 C         -70.281311     -182.769928      -65.912987
 N         -71.111008     -183.555222      -65.620934
 H         -67.649147     -182.299133      -63.221798
 H         -69.465530     -182.085800      -66.267097
 C         -67.256317     -182.169785      -62.207497
 C         -67.648964     -183.053833      -61.061947
 C         -67.082054     -180.747650      -61.713890
 C         -66.612877     -183.015518      -59.895584
 C         -66.085999     -180.670654      -60.478046
 C         -66.462105     -181.633224      -59.344601
 H         -67.877373     -184.030167      -61.469074
 H         -68.680473     -182.889099      -60.665085
 H         -66.634804     -180.134842      -62.509636
 H         -68.007278     -180.265976      -61.485744
 H         -65.545090     -183.223923      -60.150318
 H         -67.031776     -183.756866      -59.075554
 H         -66.088982     -179.592178      -60.230247
 H         -65.059586     -180.933899      -60.716167
 H         -65.707558     -181.466568      -58.509125
 H         -67.390305     -181.171051      -59.071518
