20
 generated by VMD
 C         -78.741821     -204.354965      -70.671898
 N         -79.882797     -204.382248      -70.315727
 H         -76.620461     -203.284515      -68.440544
 H         -77.701370     -204.320770      -70.724205
 C         -75.661362     -202.926514      -68.853966
 C         -75.640396     -201.654312      -69.617546
 C         -74.386604     -203.742935      -68.894600
 C         -74.743759     -201.769547      -70.858925
 C         -73.099709     -202.922745      -69.142723
 C         -73.333061     -201.900085      -70.292442
 H         -75.164368     -200.935516      -68.870811
 H         -76.610382     -201.307327      -69.938217
 H         -74.352417     -204.277985      -67.922897
 H         -74.456390     -204.542450      -69.630196
 H         -74.860657     -200.940323      -71.532204
 H         -75.005066     -202.659714      -71.394798
 H         -72.247406     -203.623505      -69.461960
 H         -72.674973     -202.332626      -68.296585
 H         -73.043823     -200.804642      -69.920494
 H         -72.624794     -201.936600      -71.157135
