20
 generated by VMD
 C         -31.070044      -75.099747      -21.464178
 N         -31.860529      -75.844460      -21.777422
 H         -28.487518      -76.086769      -20.659517
 H         -30.184097      -74.340874      -21.553988
 C         -27.552418      -75.899300      -21.134560
 C         -26.704250      -76.967804      -21.807848
 C         -26.774755      -74.720398      -20.592508
 C         -25.752695      -76.331528      -22.883028
 C         -25.676701      -74.145271      -21.722736
 C         -24.802553      -75.300209      -22.275284
 H         -27.425755      -77.642563      -22.522808
 H         -26.070129      -77.567917      -21.110952
 H         -27.538286      -73.961372      -20.318607
 H         -26.278633      -75.050697      -19.601173
 H         -26.186003      -75.855537      -23.799196
 H         -25.100897      -77.189873      -23.211578
 H         -25.043713      -73.333679      -21.243761
 H         -26.398161      -73.748573      -22.534172
 H         -24.104792      -75.048164      -23.087778
 H         -24.207335      -75.663544      -21.430349
