20
 generated by VMD
 C         -40.218941     -116.974258      -34.377254
 N         -39.431400     -116.139984      -34.561680
 H         -41.406570     -116.043068      -37.981571
 H         -40.963554     -117.667183      -34.156994
 C         -42.549221     -115.991699      -37.965912
 C         -43.206734     -116.023827      -39.287128
 C         -43.345612     -115.917755      -36.709572
 C         -44.522762     -116.729454      -39.233097
 C         -44.518570     -116.910637      -36.829250
 C         -45.320492     -116.399200      -38.031464
 H         -42.658745     -116.422577      -40.128750
 H         -43.368710     -114.979149      -39.414715
 H         -42.572556     -116.198769      -35.873882
 H         -43.691902     -114.848785      -36.579681
 H         -44.349213     -117.769867      -39.425545
 H         -45.155537     -116.407822      -40.108788
 H         -44.981026     -116.733047      -35.905655
 H         -44.207783     -117.934784      -36.933392
 H         -46.375015     -116.798523      -37.983131
 H         -45.624252     -115.375183      -38.088680
