20
 generated by VMD
 C         -30.464754      -74.324707      -21.002592
 N         -30.528826      -75.371750      -20.484007
 H         -27.746136      -74.561401      -19.917303
 H         -30.410414      -73.313568      -21.070454
 C         -26.775784      -74.540924      -20.309910
 C         -26.231777      -75.642899      -21.065012
 C         -25.914150      -73.304428      -20.337990
 C         -26.036381      -75.312836      -22.532438
 C         -25.689316      -72.918694      -21.872646
 C         -25.085970      -74.067734      -22.624479
 H         -26.995693      -76.527306      -21.113567
 H         -25.186701      -75.979713      -20.723904
 H         -26.433548      -72.485382      -19.797474
 H         -25.015488      -73.624878      -19.806128
 H         -26.972307      -75.114639      -23.078735
 H         -25.640339      -76.228226      -22.973640
 H         -25.093479      -72.032692      -21.763355
 H         -26.633759      -72.518166      -22.334715
 H         -25.022942      -73.841057      -23.725309
 H         -24.014542      -74.174026      -22.415976
