20
 generated by VMD
 C         -67.489098     -179.990143      -58.296795
 N         -68.505455     -180.134079      -58.817814
 H         -67.249557     -176.244339      -59.673340
 H         -66.491936     -179.803146      -57.869232
 C         -66.172348     -176.045151      -60.139050
 C         -66.021309     -175.232895      -61.297157
 C         -65.081245     -176.638565      -59.414974
 C         -64.834869     -174.256577      -61.118313
 C         -63.942230     -175.585800      -59.245983
 C         -63.588669     -174.955627      -60.569695
 H         -66.851295     -174.543243      -61.456108
 H         -66.082024     -175.910965      -62.219299
 H         -65.357651     -177.179123      -58.504623
 H         -64.727943     -177.421844      -60.168583
 H         -65.197891     -173.408768      -60.486408
 H         -64.653259     -173.686096      -61.990788
 H         -63.068188     -176.089661      -58.759796
 H         -64.313942     -174.723923      -58.678020
 H         -62.676483     -174.355240      -60.731266
 H         -63.337959     -175.812759      -61.351398
