20
 generated by VMD
 C         -10.493251      -37.673378       -7.595821
 N         -11.390544      -36.999027       -7.780746
 H         -12.626390      -39.841503       -8.309243
 H         -13.792272      -39.477085       -7.045843
 C         -13.627935      -39.950603       -7.959669
 C         -13.885851      -41.462502       -7.786634
 C         -14.504653      -39.361340       -9.118631
 C         -15.321984      -41.924850       -7.736931
 C         -15.963051      -39.685112       -8.866408
 C         -16.159822      -41.184376       -8.858731
 H         -13.364759      -41.795341       -6.893946
 H         -13.550368      -42.020634       -8.631096
 H         -14.361546      -38.243984       -9.202497
 H         -14.212074      -39.833836      -10.076985
 H         -15.682348      -41.673050       -6.742542
 H         -15.359955      -43.040619       -7.873442
 H         -16.550266      -39.181011       -9.596680
 H         -16.230120      -39.197842       -7.891551
 H         -17.216921      -41.404415       -8.706586
 H         -15.880152      -41.667412       -9.776283
