20
 generated by VMD
 C         -60.904709     -155.490738      -54.845112
 N         -61.040104     -156.366318      -54.021755
 H         -59.170212     -155.080460      -51.726673
 H         -60.700504     -154.655823      -55.531235
 C         -58.112450     -155.226379      -51.521221
 C         -57.518299     -154.570969      -50.379921
 C         -57.108997     -155.875763      -52.500408
 C         -56.325069     -155.198959      -49.832222
 C         -55.975666     -156.686600      -51.820248
 C         -55.347668     -155.704132      -50.925724
 H         -58.244987     -154.512512      -49.456375
 H         -57.438454     -153.507126      -50.686298
 H         -57.582142     -156.617371      -53.221493
 H         -56.879768     -155.092438      -53.151905
 H         -56.616688     -156.059906      -49.253876
 H         -55.962753     -154.290268      -49.274578
 H         -55.227901     -157.029968      -52.681801
 H         -56.372223     -157.524078      -51.253212
 H         -54.462349     -156.069870      -50.317913
 H         -54.970623     -154.903427      -51.479210
