20
 generated by VMD
 C         -72.648628     -199.123199      -65.584541
 N         -72.262459     -199.823090      -64.750664
 H         -71.190895     -196.166489      -67.337952
 H         -73.208336     -198.626221      -66.351082
 C         -72.126648     -195.778198      -67.685760
 C         -72.849236     -194.542465      -67.220749
 C         -72.619713     -196.328842      -69.026901
 C         -74.200027     -194.317078      -67.978912
 C         -74.028854     -196.704727      -68.864502
 C         -74.828232     -195.754059      -68.029404
 H         -72.258804     -193.663727      -67.230553
 H         -73.004982     -194.632019      -66.088013
 H         -72.400253     -195.654556      -69.825279
 H         -72.145515     -197.262466      -69.269638
 H         -74.133408     -193.666855      -68.876091
 H         -74.728210     -193.703918      -67.285591
 H         -74.119331     -197.638931      -68.364838
 H         -74.511429     -196.925323      -69.850807
 H         -75.797874     -195.626053      -68.392670
 H         -75.234032     -196.089371      -66.960670
