20
 generated by VMD
 C         -10.684850      -37.411335       -7.927762
 N         -10.696229      -36.273182       -7.927483
 H         -13.345664      -37.429466       -7.740067
 H         -14.352704      -38.249409       -6.471498
 C         -14.018617      -38.348495       -7.478041
 C         -13.177899      -39.649822       -7.435549
 C         -15.174975      -38.429226       -8.520020
 C         -13.989797      -40.901035       -7.362349
 C         -16.014492      -39.687222       -8.266958
 C         -15.134390      -40.919830       -8.368483
 H         -12.442060      -39.769276       -6.627923
 H         -12.540144      -39.688290       -8.336556
 H         -15.794108      -37.520363       -8.515112
 H         -14.754705      -38.404175       -9.501701
 H         -14.393094      -40.983345       -6.311268
 H         -13.390614      -41.797268       -7.358830
 H         -16.925905      -39.692871       -8.931210
 H         -16.340992      -39.548145       -7.268690
 H         -15.740839      -41.788094       -8.147587
 H         -14.724781      -40.994156       -9.356914
