20
 generated by VMD
 C         -59.940174     -156.829910      -56.300049
 N         -60.959576     -156.384064      -56.401043
 H         -59.696114     -157.411331      -53.261517
 H         -58.957928     -157.291199      -56.377140
 C         -58.918064     -157.873291      -52.775681
 C         -57.714184     -157.064453      -52.347816
 C         -58.832455     -159.425003      -52.534100
 C         -57.305840     -157.270737      -50.927055
 C         -58.417549     -159.620392      -51.000385
 C         -57.151741     -158.817719      -50.618866
 H         -57.935879     -156.046814      -52.694881
 H         -56.947880     -157.409958      -52.952747
 H         -59.761906     -159.957382      -52.686764
 H         -58.099255     -160.000854      -53.185688
 H         -58.041550     -156.927292      -50.192066
 H         -56.309555     -156.727158      -50.743328
 H         -58.185238     -160.661926      -50.857059
 H         -59.185631     -159.431549      -50.359619
 H         -57.074909     -158.921249      -49.567322
 H         -56.251102     -159.252716      -51.210476
