20
 generated by VMD
 C         -15.086226      -45.828468       -7.122823
 N         -14.613067      -46.746475       -6.725939
 H         -15.538823      -44.159744       -9.076373
 H         -14.573668      -44.355667      -10.504257
 C         -15.565324      -44.422081      -10.132841
 C         -16.428698      -43.384327      -10.858804
 C         -16.082157      -45.826385      -10.288816
 C         -16.640839      -43.843822      -12.280498
 C         -16.319120      -46.275211      -11.723503
 C         -17.198673      -45.297180      -12.442640
 H         -16.042814      -42.339966      -10.730877
 H         -17.341093      -43.351952      -10.284336
 H         -15.392832      -46.518639       -9.801708
 H         -17.061268      -45.909229       -9.801072
 H         -15.755477      -43.779137      -12.935701
 H         -17.334272      -43.162628      -12.772041
 H         -16.813692      -47.272610      -11.745282
 H         -15.386383      -46.400894      -12.204783
 H         -17.266506      -45.551952      -13.501957
 H         -18.180126      -45.296047      -12.034518
