20
 generated by VMD
 C         -22.383471      -68.312157      -16.623560
 N         -22.071812      -68.529839      -15.525838
 H         -23.996988      -65.594612      -18.564852
 H         -22.544596      -68.041061      -17.638165
 C         -24.601412      -66.502060      -18.969646
 C         -24.057325      -67.164703      -20.209108
 C         -26.167856      -66.576347      -18.958506
 C         -24.449646      -68.607002      -20.260620
 C         -26.662130      -68.080330      -19.191021
 C         -25.956316      -68.752144      -20.446043
 H         -22.912355      -67.172325      -20.077370
 H         -24.410379      -66.546005      -21.095301
 H         -26.577698      -66.360321      -17.946617
 H         -26.528261      -65.947365      -19.749790
 H         -24.137861      -69.008827      -19.232956
 H         -23.827885      -69.203751      -20.944632
 H         -27.807474      -68.145638      -19.334322
 H         -26.507879      -68.826851      -18.371216
 H         -26.149519      -69.831505      -20.384748
 H         -26.356689      -68.257385      -21.331341
