20
 generated by VMD
 C         -12.589188      -27.366604       -4.723752
 N         -13.450140      -28.094717       -4.688525
 H         -10.633022      -30.105816       -2.629913
 H         -10.793485      -28.523628       -3.442674
 C         -10.044795      -29.329121       -3.211010
 C          -9.457153      -30.148058       -4.378552
 C          -8.909356      -28.780859       -2.411881
 C          -8.604034      -29.166422       -5.242964
 C          -8.054625      -27.867737       -3.186621
 C          -7.495211      -28.585129       -4.433713
 H         -10.298999      -30.673733       -4.911278
 H          -8.791710      -30.890310       -4.037868
 H          -9.400307      -28.228916       -1.605326
 H          -8.314798      -29.615334       -2.028893
 H          -9.294267      -28.410727       -5.633217
 H          -8.181688      -29.675768       -6.149301
 H          -7.179322      -27.517273       -2.590225
 H          -8.549114      -27.036747       -3.590665
 H          -6.867622      -27.870472       -4.970838
 H          -6.749008      -29.360641       -4.147514
