20
 generated by VMD
 C         -10.313929      -37.095154       -7.381214
 N         -10.483786      -36.354118       -8.197190
 H         -13.554940      -37.644058       -7.583873
 H         -14.624590      -38.600899       -6.565523
 C         -14.107783      -38.624786       -7.553429
 C         -13.267256      -39.902599       -7.657774
 C         -15.243764      -38.544270       -8.556634
 C         -14.227514      -41.073315       -7.322888
 C         -16.137987      -39.767563       -8.516319
 C         -15.375937      -41.165199       -8.364634
 H         -12.454783      -39.852760       -6.883103
 H         -12.860546      -39.973816       -8.727353
 H         -15.820690      -37.683807       -8.361862
 H         -14.790106      -38.563248       -9.568580
 H         -14.698188      -40.962936       -6.368490
 H         -13.593922      -41.959457       -7.364217
 H         -16.747437      -39.849789       -9.367026
 H         -16.805132      -39.753555       -7.612488
 H         -16.052256      -41.958187       -8.120474
 H         -15.007223      -41.379719       -9.388317
