20
 generated by VMD
 C         -59.878925     -169.634705      -55.562180
 N         -59.676052     -168.574310      -55.023697
 H         -63.231331     -170.463455      -56.539474
 H         -59.937069     -170.633041      -56.007366
 C         -63.214561     -169.395584      -56.793114
 C         -62.752693     -168.961212      -58.172455
 C         -63.566360     -168.318527      -55.677910
 C         -63.398643     -167.667511      -58.650936
 C         -64.103004     -167.083282      -56.294479
 C         -63.526257     -166.571121      -57.608677
 H         -62.974716     -169.903961      -58.836533
 H         -61.655506     -168.862381      -58.172367
 H         -64.287048     -168.781082      -54.834248
 H         -62.537540     -168.101196      -55.147385
 H         -64.388275     -167.813004      -59.080544
 H         -62.880032     -167.231552      -59.492741
 H         -63.930878     -166.167938      -55.619503
 H         -65.314178     -167.234467      -56.365479
 H         -64.237068     -165.769150      -57.834812
 H         -62.579086     -166.122742      -57.447338
