20
 generated by VMD
 C         -78.719841     -204.422256      -70.725349
 N         -79.719803     -204.175354      -70.206726
 H         -76.393845     -203.238037      -68.184669
 H         -77.755608     -204.724548      -70.997307
 C         -75.474037     -202.685257      -68.492104
 C         -75.802979     -201.666183      -69.542030
 C         -74.306381     -203.534531      -68.792183
 C         -74.796745     -201.627655      -70.781029
 C         -73.063087     -202.877243      -69.305916
 C         -73.246971     -201.837341      -70.389275
 H         -75.824409     -200.572205      -69.228958
 H         -76.760170     -201.958923      -69.948624
 H         -74.147545     -204.382217      -68.081192
 H         -74.654533     -204.152527      -69.671982
 H         -74.898911     -200.617844      -71.239349
 H         -75.149193     -202.326660      -71.504395
 H         -72.414886     -203.663742      -69.762306
 H         -72.453484     -202.457001      -68.441513
 H         -72.933800     -200.735809      -70.129875
 H         -72.617317     -201.912537      -71.275909
