20
 generated by VMD
 C          -2.423096       -8.682017       -0.688214
 N          -1.550771       -8.349612       -0.088823
 H          -3.032076       -9.662179        2.868063
 H          -1.920747      -10.977659        3.450723
 C          -2.923364      -10.675562        3.247803
 C          -3.428747      -11.580687        2.103719
 C          -3.662417      -10.824935        4.524700
 C          -3.361740      -13.021338        2.565848
 C          -3.606261      -12.322571        4.882984
 C          -4.060438      -13.312252        3.825544
 H          -2.796570      -11.388180        1.255226
 H          -4.468767      -11.279268        1.884053
 H          -3.402272      -10.197096        5.331155
 H          -4.690940      -10.579356        4.350750
 H          -2.305069      -13.190126        2.620243
 H          -3.693313      -13.599519        1.738733
 H          -4.204301      -12.454165        5.799364
 H          -2.575206      -12.667229        5.213905
 H          -3.725573      -14.311436        4.159756
 H          -5.157680      -13.369732        3.638792
