20
 generated by VMD
 C         -35.170090      -97.754761      -25.728878
 N         -35.815113      -97.516464      -26.635731
 H         -35.589737      -94.991440      -27.757341
 H         -34.688709      -97.988968      -24.696468
 C         -35.326950      -94.785553      -28.782345
 C         -35.827793      -95.683701      -29.984501
 C         -34.036015      -94.057892      -28.941257
 C         -35.636902      -94.933769      -31.347483
 C         -33.830055      -93.554428      -30.389517
 C         -34.181263      -94.602760      -31.533007
 H         -36.903412      -95.747742      -29.827881
 H         -35.385883      -96.663673      -29.916956
 H         -33.980827      -93.175415      -28.306906
 H         -33.210331      -94.770981      -28.760954
 H         -36.321037      -94.058571      -31.404324
 H         -35.942974      -95.613380      -32.235046
 H         -32.875031      -93.068420      -30.373650
 H         -34.701294      -92.767921      -30.537767
 H         -33.995342      -94.074005      -32.533585
 H         -33.615875      -95.378090      -31.727787
