20
 generated by VMD
 C         -79.352028     -209.035065      -76.738831
 N         -79.027138     -210.014328      -76.266342
 H         -77.834160     -209.343079      -73.106781
 H         -79.670586     -208.069656      -77.098969
 C         -78.036240     -210.337967      -72.591789
 C         -77.070442     -210.681381      -71.465637
 C         -79.153587     -211.347260      -73.068062
 C         -77.735062     -211.538986      -70.316582
 C         -79.882530     -211.783173      -71.802536
 C         -79.001053     -212.439240      -70.764305
 H         -76.676529     -209.766357      -70.982193
 H         -76.172745     -211.118088      -71.823540
 H         -79.860138     -210.965515      -73.717850
 H         -78.843246     -212.334091      -73.462761
 H         -78.089043     -210.820282      -69.559784
 H         -76.946030     -212.180145      -69.892525
 H         -80.670372     -212.429794      -72.003830
 H         -80.379158     -210.867798      -71.373642
 H         -79.459366     -212.886505      -69.860992
 H         -78.569748     -213.288101      -71.320839
