20
 generated by VMD
 C         -41.543991     -119.449196      -34.470135
 N         -41.327854     -120.047638      -35.402405
 H         -43.477806     -118.485092      -36.706337
 H         -41.989120     -118.996735      -33.554333
 C         -43.814625     -118.231880      -37.657890
 C         -42.916775     -118.168839      -38.900169
 C         -45.122570     -117.587036      -37.669289
 C         -43.792259     -118.642403      -40.076508
 C         -45.910927     -117.965408      -38.882320
 C         -45.121941     -117.880508      -40.221817
 H         -42.080845     -118.867302      -38.661808
 H         -42.551113     -117.099297      -38.836609
 H         -45.794434     -117.774879      -36.796581
 H         -44.893353     -116.595390      -37.620853
 H         -43.836563     -119.706367      -40.050697
 H         -43.153469     -118.381638      -40.969105
 H         -46.814541     -117.436806      -39.012054
 H         -46.280132     -118.984978      -38.759556
 H         -45.715195     -118.128525      -41.186131
 H         -44.896336     -116.824234      -40.379040
