20
 generated by VMD
 C         -60.202789     -157.304459      -56.127621
 N         -59.652145     -158.185211      -56.747452
 H         -60.225967     -157.396194      -52.651451
 H         -60.745144     -156.535812      -55.585907
 C         -59.452576     -158.140182      -52.817772
 C         -57.998421     -157.810547      -52.251614
 C         -59.596783     -159.622925      -53.233303
 C         -57.662720     -158.718658      -51.065662
 C         -59.329609     -160.442673      -51.955048
 C         -57.936268     -160.241608      -51.403084
 H         -57.843796     -156.770096      -52.055435
 H         -57.305752     -158.051254      -53.139107
 H         -60.501228     -159.947144      -53.727352
 H         -58.887711     -159.745880      -54.064682
 H         -58.247887     -158.368713      -50.138069
 H         -56.642162     -158.494492      -50.966946
 H         -59.475754     -161.498337      -52.150513
 H         -60.012932     -160.108704      -51.108887
 H         -57.841866     -160.755707      -50.351025
 H         -57.234966     -160.615524      -52.110424
