20
 generated by VMD
 C         -10.744535      -37.220840       -8.180033
 N         -10.363304      -36.723881       -7.263408
 H         -12.809455      -39.090836       -7.933760
 H         -14.249833      -39.233315       -6.800892
 C         -13.804812      -39.590668       -7.795033
 C         -13.692409      -41.107677       -7.858127
 C         -14.811043      -39.115120       -8.911214
 C         -15.084072      -41.730076       -7.576313
 C         -16.187260      -39.819412       -8.916695
 C         -16.117092      -41.330727       -8.681550
 H         -12.960194      -41.605358       -7.161599
 H         -13.282930      -41.480114       -8.842626
 H         -14.961659      -38.020214       -8.961411
 H         -14.330515      -39.264946       -9.878437
 H         -15.355992      -41.418808       -6.539033
 H         -15.065507      -42.798977       -7.440043
 H         -16.616398      -39.588306       -9.957573
 H         -16.760122      -39.294033       -8.210228
 H         -17.104858      -41.834251       -8.510968
 H         -15.668755      -41.805248       -9.592318
