20
 generated by VMD
 C         -56.302685     -150.006088      -46.655975
 N         -56.925667     -150.511124      -45.851288
 H         -53.152157     -147.835358      -47.722111
 H         -55.767303     -149.408554      -47.329010
 C         -53.681099     -147.455215      -48.601429
 C         -52.973549     -147.855942      -49.880505
 C         -54.611057     -146.191208      -48.546471
 C         -53.899792     -147.660812      -51.055531
 C         -55.413250     -145.983612      -49.849880
 C         -54.458881     -146.289230      -51.111866
 H         -52.546871     -148.807556      -49.840515
 H         -52.124725     -147.095825      -50.135708
 H         -55.330505     -146.151672      -47.723598
 H         -53.894207     -145.294250      -48.357574
 H         -54.656803     -148.407104      -50.899963
 H         -53.392826     -147.933273      -51.936134
 H         -55.647663     -144.905197      -49.939888
 H         -56.258026     -146.659531      -49.827763
 H         -55.029224     -146.256134      -52.052700
 H         -53.634178     -145.534760      -51.102196
