20
 generated by VMD
 C          -2.484099       -8.691422       -0.557008
 N          -1.506430       -8.423233       -0.169419
 H          -3.121807       -9.548597        2.883868
 H          -1.802742      -10.745847        3.364614
 C          -2.907892      -10.609774        3.212864
 C          -3.354991      -11.628378        2.101994
 C          -3.759842      -10.935884        4.475529
 C          -3.306490      -13.119539        2.490978
 C          -3.664652      -12.390339        4.930065
 C          -4.139557      -13.291057        3.813867
 H          -2.722626      -11.505896        1.185036
 H          -4.376751      -11.333827        1.830694
 H          -3.228221      -10.260571        5.215326
 H          -4.833670      -10.600669        4.350353
 H          -2.267744      -13.497515        2.677892
 H          -3.766348      -13.755007        1.667507
 H          -4.228774      -12.524156        5.857026
 H          -2.645830      -12.501116        5.210233
 H          -4.107229      -14.331818        4.120230
 H          -5.146760      -12.978640        3.534257
