20
 generated by VMD
 C         -41.401989     -102.327820      -34.479050
 N         -41.239628     -101.868584      -35.562584
 H         -39.589943     -104.372803      -32.182007
 H         -41.219643     -102.865448      -33.595924
 C         -38.571198     -104.409904      -31.931250
 C         -37.577374     -103.835411      -32.808346
 C         -38.181824     -105.492683      -31.039722
 C         -36.160168     -103.521950      -32.252491
 C         -37.001999     -105.034912      -30.233744
 C         -35.818047     -104.696609      -31.289558
 H         -37.996147     -102.926414      -33.329800
 H         -37.392555     -104.532486      -33.592209
 H         -39.038952     -105.769173      -30.329460
 H         -38.024544     -106.364883      -31.707802
 H         -36.267643     -102.488701      -31.866831
 H         -35.326927     -103.505150      -32.980659
 H         -36.815060     -105.745407      -29.448933
 H         -37.121399     -103.959579      -29.743027
 H         -34.939388     -104.513794      -30.757521
 H         -35.560020     -105.665321      -31.871635
