20
 generated by VMD
 C         -31.484447      -79.338814      -26.382315
 N         -30.872276      -78.318802      -26.456652
 H         -28.639242      -81.442711      -25.462284
 H         -31.977839      -80.245903      -26.283741
 C         -28.782511      -81.672478      -24.370893
 C         -27.647448      -81.460320      -23.334621
 C         -29.965637      -82.573685      -24.094702
 C         -28.333275      -81.296494      -21.945877
 C         -30.494339      -82.434959      -22.737167
 C         -29.433750      -82.273689      -21.722208
 H         -27.047308      -80.554604      -23.640659
 H         -26.966534      -82.259567      -23.495605
 H         -30.617502      -82.502174      -24.949581
 H         -29.639874      -83.597153      -24.135515
 H         -28.721849      -80.260872      -21.790821
 H         -27.563086      -81.398346      -21.076546
 H         -31.195560      -83.308693      -22.521029
 H         -31.084066      -81.602074      -22.705372
 H         -29.877806      -81.884605      -20.832508
 H         -29.078676      -83.200478      -21.373976
