20
 generated by VMD
 C         -44.778996     -122.344864      -35.843708
 N         -44.682110     -122.852859      -34.791077
 H         -45.347523     -122.782867      -39.146248
 H         -44.663486     -121.835899      -36.739697
 C         -44.977303     -121.820267      -39.586735
 C         -43.548420     -121.398102      -39.583378
 C         -46.081154     -120.824646      -39.585529
 C         -43.289631     -120.149529      -40.596241
 C         -45.744846     -119.627922      -40.495972
 C         -44.245117     -119.044594      -40.310188
 H         -43.015568     -122.332573      -39.985397
 H         -43.051689     -121.113083      -38.561867
 H         -46.932724     -121.408287      -39.922012
 H         -46.367275     -120.451744      -38.616573
 H         -43.325863     -120.524117      -41.563618
 H         -42.285179     -119.751511      -40.398865
 H         -46.363483     -118.732178      -40.502655
 H         -45.778091     -119.834579      -41.601170
 H         -44.058739     -118.263351      -41.050556
 H         -44.062073     -118.605614      -39.360394
