20
 generated by VMD
 C         -67.467590     -189.629959      -66.636040
 N         -66.339340     -189.853409      -66.700768
 H         -70.234932     -190.837769      -65.718262
 H         -68.490662     -189.253754      -66.772110
 C         -70.869225     -190.184586      -65.067970
 C         -72.097267     -190.875977      -64.671043
 C         -70.478233     -189.062363      -64.288643
 C         -73.128647     -190.110062      -63.975151
 C         -71.582253     -188.144684      -64.023415
 C         -72.543121     -188.897705      -63.095062
 H         -71.785492     -191.874084      -64.112389
 H         -72.562279     -191.313080      -65.617249
 H         -69.990379     -189.414932      -63.393211
 H         -69.610779     -188.635727      -64.777702
 H         -73.866806     -190.705200      -63.453613
 H         -73.825531     -189.693176      -64.800362
 H         -72.090622     -187.810638      -64.960884
 H         -71.270180     -187.255005      -63.550682
 H         -71.959702     -189.434860      -62.294369
 H         -73.271019     -188.152618      -62.810040
