20
 generated by VMD
 C         -68.296028     -179.647934      -58.522068
 N         -67.560486     -179.304611      -57.685253
 H         -66.281822     -176.673965      -59.630333
 H         -69.021286     -179.842636      -59.330517
 C         -65.543472     -175.860397      -59.571327
 C         -66.034485     -174.689255      -60.500271
 C         -64.107391     -176.015030      -59.616688
 C         -65.098961     -173.464676      -60.616333
 C         -63.306152     -174.754089      -59.598217
 C         -63.629402     -173.800415      -60.740078
 H         -67.015022     -174.280884      -60.140892
 H         -66.197975     -175.379486      -61.381718
 H         -63.675358     -176.691025      -58.900700
 H         -63.860146     -176.380493      -60.563992
 H         -65.325676     -172.966614      -59.585697
 H         -65.555977     -172.710648      -61.356255
 H         -62.264587     -175.074234      -59.489067
 H         -63.484325     -174.223358      -58.617809
 H         -63.028080     -172.906555      -60.576054
 H         -63.296753     -174.379791      -61.600060
