20
 generated by VMD
 C         -58.545166     -151.556580      -49.628166
 N         -59.124722     -152.198441      -48.803455
 H         -55.738941     -150.002151      -48.016418
 H         -57.866325     -151.040131      -50.322571
 C         -55.078175     -149.511093      -48.715935
 C         -54.208298     -150.589050      -49.413055
 C         -54.859604     -148.020538      -48.937347
 C         -54.228134     -150.234833      -50.882923
 C         -54.823341     -147.725876      -50.429371
 C         -53.856655     -148.751465      -51.154339
 H         -54.617897     -151.618393      -49.290424
 H         -53.191479     -150.573288      -49.125507
 H         -55.641403     -147.441483      -48.501671
 H         -53.926167     -147.870911      -48.422108
 H         -55.176476     -150.636902      -51.261353
 H         -53.493778     -150.810104      -51.425121
 H         -54.673256     -146.675705      -50.983692
 H         -55.791679     -147.961304      -50.770447
 H         -53.813911     -148.634247      -52.212944
 H         -52.787170     -148.530365      -50.803429
