20
 generated by VMD
 C         -59.424831     -158.219604      -56.776859
 N         -58.611431     -158.573990      -57.471481
 H         -60.352856     -158.218811      -53.551094
 H         -60.142799     -157.929047      -56.065445
 C         -59.927685     -159.016342      -53.008362
 C         -58.615284     -158.946594      -52.520813
 C         -60.547447     -160.370743      -53.197407
 C         -58.320774     -160.026642      -51.468117
 C         -60.297729     -161.348267      -52.020615
 C         -58.818680     -161.375702      -51.927303
 H         -58.519535     -157.988174      -52.005836
 H         -57.960320     -159.114517      -53.358109
 H         -61.598389     -160.280075      -53.344738
 H         -60.111309     -160.749969      -54.134396
 H         -58.742886     -159.890320      -50.406200
 H         -57.312721     -159.994003      -51.474506
 H         -60.883778     -162.234100      -52.313232
 H         -60.613953     -160.978561      -51.077667
 H         -58.331223     -162.069290      -51.250828
 H         -58.381237     -161.562347      -52.847366
