20
 generated by VMD
 C         -40.594131     -106.336113      -37.184101
 N         -39.702682     -106.755486      -37.762417
 H         -38.481651     -108.077042      -34.723572
 H         -41.349709     -106.063934      -36.424454
 C         -39.102207     -108.564690      -33.928322
 C         -38.615196     -109.839478      -33.155300
 C         -40.412682     -108.851898      -34.479549
 C         -39.534302     -110.191048      -32.025341
 C         -41.463158     -109.221031      -33.421341
 C         -40.976929     -110.472214      -32.485310
 H         -37.554401     -109.857880      -32.925537
 H         -38.598492     -110.687576      -33.845558
 H         -40.746151     -108.001762      -35.075180
 H         -40.335629     -109.743675      -35.237694
 H         -39.431709     -109.365860      -31.190964
 H         -39.027100     -111.156395      -31.569359
 H         -42.488247     -109.426392      -33.792564
 H         -41.735542     -108.366463      -32.799255
 H         -41.613781     -110.563751      -31.593803
 H         -41.009048     -111.383224      -33.008926
