20
 generated by VMD
 C         -38.748207     -108.409805      -36.800816
 N         -37.727322     -108.832047      -37.144833
 H         -41.582336     -109.455612      -36.128120
 H         -39.648663     -107.870132      -36.442570
 C         -41.464031     -110.064789      -35.319828
 C         -40.789604     -111.349144      -35.493206
 C         -42.474873     -109.930702      -34.145988
 C         -40.419464     -112.069519      -34.274189
 C         -42.083717     -110.741570      -32.938885
 C         -41.603817     -112.092751      -33.273182
 H         -39.903347     -111.042076      -36.044460
 H         -41.310635     -112.010056      -36.283585
 H         -42.345501     -108.900658      -33.778423
 H         -43.494995     -110.034111      -34.486767
 H         -39.568958     -111.616486      -33.776321
 H         -40.073608     -113.170975      -34.494884
 H         -42.961227     -110.716347      -32.331623
 H         -41.295792     -110.240524      -32.425514
 H         -41.208633     -112.711594      -32.340279
 H         -42.351704     -112.621056      -33.807968
