20
 generated by VMD
 C         -25.732250      -71.293411      -17.132967
 N         -25.480049      -71.365944      -15.982749
 H         -23.741198      -68.463203      -19.033751
 H         -25.926899      -71.184685      -18.127989
 C         -24.500313      -69.056709      -19.504032
 C         -23.902897      -69.956696      -20.517046
 C         -25.781490      -68.428474      -19.927580
 C         -24.867283      -70.826889      -21.222015
 C         -26.828112      -69.304680      -20.676893
 C         -26.132938      -70.157883      -21.826349
 H         -22.987974      -70.609276      -20.226749
 H         -23.571777      -69.433723      -21.413479
 H         -26.132401      -67.935043      -18.963799
 H         -25.391989      -67.712059      -20.637623
 H         -25.177538      -71.562233      -20.536053
 H         -24.412037      -71.415962      -22.079231
 H         -27.664001      -68.771935      -21.099964
 H         -27.255949      -69.903366      -19.893095
 H         -26.723742      -70.964523      -22.259645
 H         -25.929094      -69.396004      -22.536356
