20
 generated by VMD
 C          -9.593378      -25.049700        0.662739
 N         -10.572496      -25.491262        0.933050
 H          -6.299096      -23.363096       -0.782550
 H          -7.776879      -22.697405       -1.299306
 C          -6.906396      -23.212624       -1.673393
 C          -7.161622      -24.605299       -2.318837
 C          -6.370390      -22.216661       -2.684271
 C          -8.135671      -24.354448       -3.504620
 C          -7.300774      -22.091742       -3.860499
 C          -7.537021      -23.434006       -4.497478
 H          -7.509541      -25.378767       -1.553920
 H          -6.248423      -25.070499       -2.638321
 H          -6.234293      -21.246538       -2.152644
 H          -5.382301      -22.561243       -2.964978
 H          -9.143476      -24.031902       -3.126854
 H          -8.408911      -25.272373       -4.043121
 H          -6.860815      -21.438784       -4.610022
 H          -8.245325      -21.647240       -3.557092
 H          -8.301341      -23.300018       -5.323139
 H          -6.552565      -23.792196       -4.868736
