20
 generated by VMD
 C         -68.384766     -185.290329      -66.143005
 N         -69.365868     -185.811615      -66.517700
 H         -69.424698     -183.432907      -64.111687
 H         -67.455833     -184.829071      -65.875122
 C         -69.228828     -183.849411      -63.053020
 C         -70.215370     -184.602219      -62.291985
 C         -67.864990     -183.714203      -62.417030
 C         -69.601753     -185.981354      -61.920605
 C         -67.790169     -184.421326      -61.054672
 C         -68.347183     -185.824570      -61.120716
 H         -71.106850     -184.745087      -62.905415
 H         -70.501427     -184.094559      -61.384899
 H         -67.159203     -184.080200      -63.167431
 H         -67.711403     -182.624100      -62.260464
 H         -69.321663     -186.465576      -62.884216
 H         -70.278473     -186.735657      -61.446869
 H         -68.488037     -183.917114      -60.361172
 H         -66.762283     -184.396790      -60.602161
 H         -67.611450     -186.467377      -61.658756
 H         -68.331261     -186.353348      -60.096725
