20
 generated by VMD
 C          -7.023285      -23.290915        2.993292
 N          -6.253336      -22.612274        2.548926
 H          -6.793902      -21.634609       -0.205908
 H          -8.288199      -21.918467       -0.924252
 C          -7.316333      -21.547531       -1.138568
 C          -6.515988      -22.390541       -2.161753
 C          -7.358869      -20.047613       -1.580568
 C          -7.070898      -22.157314       -3.617928
 C          -7.920155      -19.870705       -2.988792
 C          -7.116502      -20.664967       -4.012904
 H          -6.495680      -23.444038       -1.892024
 H          -5.366071      -22.219021       -2.170502
 H          -8.118127      -19.521664       -0.923924
 H          -6.328332      -19.691149       -1.492472
 H          -8.096466      -22.480970       -3.669346
 H          -6.405260      -22.693689       -4.298260
 H          -7.712439      -18.808556       -3.235954
 H          -8.981167      -20.141768       -2.872731
 H          -7.597984      -20.667595       -4.980588
 H          -6.136062      -20.214138       -4.135293
