20
 generated by VMD
 C         -48.434601     -135.726395      -46.318527
 N         -47.552311     -135.890991      -45.602081
 H         -51.826488     -134.844955      -45.842388
 H         -49.155354     -135.615524      -47.095020
 C         -51.841309     -135.724716      -45.164967
 C         -52.437500     -137.108002      -45.519341
 C         -51.233711     -135.590851      -43.873978
 C         -51.586540     -138.258636      -45.050503
 C         -50.456989     -136.803024      -43.324276
 C         -51.099445     -138.201370      -43.668468
 H         -52.442146     -137.200684      -46.603958
 H         -53.497997     -137.169876      -45.204144
 H         -50.609455     -134.778458      -43.696537
 H         -52.066601     -135.420242      -43.198811
 H         -50.740559     -138.349228      -45.812511
 H         -52.207211     -139.123962      -45.237503
 H         -50.180653     -136.726379      -42.216442
 H         -49.494659     -136.758286      -43.979023
 H         -50.342762     -138.994919      -43.582569
 H         -52.057240     -138.256104      -42.865562
