20
 generated by VMD
 C         -22.723747      -68.432732      -16.617002
 N         -22.882490      -69.113953      -15.712280
 H         -23.921518      -66.032982      -18.758488
 H         -22.789263      -67.814163      -17.601854
 C         -24.565369      -66.716805      -19.263943
 C         -23.980721      -67.529060      -20.286131
 C         -26.027245      -66.943596      -18.980368
 C         -24.503435      -68.921432      -20.381170
 C         -26.603804      -68.351624      -19.299578
 C         -26.031862      -68.940979      -20.602612
 H         -22.955612      -67.627632      -20.057877
 H         -23.841095      -67.060081      -21.228987
 H         -25.870682      -66.683632      -17.861719
 H         -26.641476      -66.145638      -19.421606
 H         -24.398617      -69.559776      -19.412661
 H         -23.962151      -69.430542      -21.225761
 H         -27.741726      -68.442108      -19.211971
 H         -26.146748      -68.954430      -18.484158
 H         -26.469893      -69.913437      -20.716160
 H         -26.420313      -68.409325      -21.435057
