20
 generated by VMD
 C         -38.178501     -107.979599      -36.869831
 N         -38.394386     -108.447220      -37.935406
 H         -40.854816     -108.650024      -35.315022
 H         -38.241798     -107.506813      -35.913715
 C         -41.209358     -109.626068      -34.797813
 C         -40.296181     -110.807007      -35.095295
 C         -42.535198     -109.788010      -34.017281
 C         -40.130123     -111.644821      -33.878895
 C         -42.215469     -110.656090      -32.806946
 C         -41.419960     -111.951820      -33.089619
 H         -39.340511     -110.457840      -35.525509
 H         -40.728382     -111.482529      -35.893211
 H         -42.797867     -108.781693      -33.576080
 H         -43.411747     -110.134537      -34.546261
 H         -39.459747     -111.094376      -33.319714
 H         -39.506321     -112.596771      -34.046432
 H         -43.179111     -110.849220      -32.205097
 H         -41.462994     -110.153366      -32.060081
 H         -41.128040     -112.358589      -32.060387
 H         -42.026382     -112.521568      -33.657333
