20
 generated by VMD
 C         -61.069729     -156.188339      -54.914928
 N         -60.276886     -155.657852      -55.497066
 H         -59.672043     -156.603531      -52.049957
 H         -61.816071     -156.808197      -54.493202
 C         -58.679829     -156.610550      -51.698879
 C         -57.968563     -155.309891      -51.503033
 C         -57.889835     -157.857895      -51.963955
 C         -56.650932     -155.520721      -50.552723
 C         -56.585384     -158.022598      -51.195240
 C         -55.783157     -156.670471      -51.129944
 H         -58.680790     -154.471161      -51.047558
 H         -57.577404     -154.891571      -52.458767
 H         -58.550545     -158.723740      -51.878693
 H         -57.601795     -157.898529      -52.973873
 H         -56.976913     -155.597977      -49.518898
 H         -55.893787     -154.766006      -50.482834
 H         -55.839146     -158.867157      -51.529274
 H         -56.994560     -158.396667      -50.260632
 H         -54.828259     -156.863037      -50.559078
 H         -55.411858     -156.295807      -52.081821
