20
 generated by VMD
 C         -23.433220      -55.122528      -15.015351
 N         -22.699263      -54.844852      -15.904149
 H         -19.734161      -54.365425      -15.517268
 H         -24.059523      -55.190353      -14.255107
 C         -19.507109      -55.177444      -14.858501
 C         -18.947084      -54.898029      -13.510966
 C         -19.082453      -56.574318      -15.441153
 C         -19.174925      -56.065502      -12.495305
 C         -19.410574      -57.706490      -14.426794
 C         -18.710398      -57.400490      -13.126479
 H         -19.317709      -53.928764      -13.150995
 H         -17.820356      -54.712627      -13.525984
 H         -19.637547      -56.789265      -16.392159
 H         -17.949274      -56.536533      -15.782719
 H         -20.249331      -56.061420      -12.251317
 H         -18.540545      -55.913010      -11.622036
 H         -19.004208      -58.644814      -14.855406
 H         -20.439596      -57.778179      -14.221272
 H         -18.840031      -58.206963      -12.393116
 H         -17.626089      -57.359921      -13.344697
