20
 generated by VMD
 C         -56.649376     -150.058517      -47.671318
 N         -57.687756     -150.424591      -48.137474
 H         -53.332306     -148.552979      -47.480595
 H         -55.738823     -149.877747      -47.159863
 C         -53.723778     -148.073700      -48.425457
 C         -53.157467     -148.766571      -49.554447
 C         -54.536507     -146.833374      -48.627609
 C         -54.120285     -148.808746      -50.755875
 C         -55.568981     -147.036270      -49.674191
 C         -54.999157     -147.569473      -50.977184
 H         -52.656746     -149.661774      -49.271748
 H         -52.351696     -148.198898      -50.104908
 H         -55.106445     -146.744186      -47.745667
 H         -53.849983     -145.971649      -48.657917
 H         -54.802792     -149.614395      -50.629929
 H         -53.439445     -149.007660      -51.616581
 H         -56.098652     -146.153610      -49.845490
 H         -56.379303     -147.701370      -49.458336
 H         -55.681713     -147.741501      -51.784111
 H         -54.232803     -146.830063      -51.191994
