20
 generated by VMD
 C         -11.605442      -32.033966       -8.970621
 N         -12.325375      -32.552864       -9.625362
 H         -11.308087      -34.128624       -6.697817
 H         -11.978942      -33.947491       -5.078781
 C         -11.785103      -34.645245       -5.911317
 C         -10.807178      -35.722870       -5.449232
 C         -13.084231      -35.166767       -6.538646
 C         -11.504750      -36.725208       -4.500398
 C         -13.732849      -36.300900       -5.701774
 C         -12.695535      -37.357281       -5.250583
 H         -10.018519      -35.337135       -4.807673
 H         -10.429333      -36.283928       -6.303752
 H         -13.885968      -34.392242       -6.752268
 H         -12.813826      -35.594601       -7.510391
 H         -11.846006      -36.135490       -3.594811
 H         -10.722997      -37.476772       -4.302280
 H         -14.397503      -36.829002       -6.307056
 H         -14.278465      -35.808006       -4.823592
 H         -13.189984      -38.116669       -4.608486
 H         -12.366033      -37.915756       -6.134076
