20
 generated by VMD
 C         -60.095749     -171.351105      -55.313835
 N         -59.399612     -172.257904      -54.957150
 H         -62.924522     -170.401245      -56.474548
 H         -60.800880     -170.518799      -55.507290
 C         -63.389614     -169.515030      -56.829258
 C         -62.489681     -168.456604      -57.454414
 C         -64.873878     -169.126068      -56.750999
 C         -63.129681     -167.929169      -58.782978
 C         -65.275909     -168.582932      -58.129749
 C         -64.513641     -167.457016      -58.608028
 H         -61.571304     -168.885117      -57.636528
 H         -62.382687     -167.607178      -56.714691
 H         -65.560822     -169.936691      -56.478493
 H         -65.209526     -168.229446      -56.154537
 H         -63.068401     -168.692169      -59.547558
 H         -62.620914     -167.172195      -59.264595
 H         -66.360641     -168.176407      -58.206089
 H         -65.173401     -169.455017      -58.843040
 H         -64.930443     -167.144196      -59.580334
 H         -64.627090     -166.633163      -57.892578
