20
 generated by VMD
 C         -79.440193     -204.986435      -70.863045
 N         -80.557243     -205.377075      -70.873611
 H         -76.964096     -203.312180      -69.388893
 H         -78.500961     -204.577209      -71.039772
 C         -75.917419     -203.094925      -69.460754
 C         -75.491898     -201.882812      -70.217735
 C         -74.927826     -204.285675      -69.181870
 C         -74.003746     -201.680374      -70.465576
 C         -73.565468     -203.639069      -68.923721
 C         -73.207840     -202.994720      -70.266830
 H         -75.873787     -201.024521      -69.656212
 H         -76.064339     -201.817795      -71.199600
 H         -75.221138     -204.799927      -68.307121
 H         -74.938164     -204.990860      -69.943153
 H         -73.510406     -200.852417      -69.912003
 H         -73.876854     -201.323029      -71.537010
 H         -72.869736     -204.462387      -68.718803
 H         -73.432426     -202.931290      -68.190125
 H         -72.186333     -202.860825      -70.246071
 H         -73.433830     -203.609253      -71.072121
