20
 generated by VMD
 C         -22.440022      -68.370956      -16.646734
 N         -22.319727      -68.747215      -15.542317
 H         -24.155817      -65.736046      -18.774633
 H         -22.557831      -68.058578      -17.603249
 C         -24.768391      -66.575569      -19.048841
 C         -23.895220      -67.304016      -20.261044
 C         -26.253092      -66.636955      -18.977518
 C         -24.451796      -68.785736      -20.374819
 C         -26.607964      -68.067200      -19.184568
 C         -25.916784      -68.801369      -20.410545
 H         -22.829685      -67.300179      -19.988306
 H         -24.155710      -66.692558      -21.224888
 H         -26.637394      -66.340080      -17.996847
 H         -26.637594      -66.110153      -19.806536
 H         -24.062031      -69.459610      -19.553940
 H         -23.976582      -69.218193      -21.254681
 H         -27.714598      -68.248901      -19.280800
 H         -26.366110      -68.718025      -18.340000
 H         -26.213652      -69.837250      -20.449293
 H         -26.324295      -68.192749      -21.214918
