20
 generated by VMD
 C         -38.427052     -112.666351      -35.828598
 N         -37.953613     -112.060089      -36.706165
 H         -40.679691     -114.676025      -35.126072
 H         -38.970181     -113.252388      -35.058079
 C         -41.712299     -114.287910      -35.456989
 C         -41.904224     -114.519058      -36.920418
 C         -42.888897     -113.517548      -34.735661
 C         -43.427166     -114.760597      -37.425861
 C         -44.336174     -113.955269      -35.172039
 C         -44.323017     -113.732834      -36.711773
 H         -41.472004     -115.452339      -37.293415
 H         -41.521751     -113.750793      -37.683872
 H         -42.868088     -113.791389      -33.672977
 H         -42.635780     -112.462379      -34.854202
 H         -43.671345     -115.840073      -37.240509
 H         -43.487713     -114.628441      -38.561638
 H         -44.975338     -113.328331      -34.580025
 H         -44.518795     -114.974136      -34.860157
 H         -45.388012     -113.746094      -37.137630
 H         -44.030476     -112.764221      -37.071751
