20
 generated by VMD
 C         -79.442314     -208.938614      -76.632965
 N         -79.030930     -210.038391      -76.535713
 H         -77.671471     -209.379242      -73.159546
 H         -79.803886     -207.979065      -76.730560
 C         -77.935570     -210.231262      -72.543053
 C         -77.092422     -210.707153      -71.459946
 C         -79.079430     -211.202682      -72.917679
 C         -77.838440     -211.431580      -70.312195
 C         -79.792068     -211.770813      -71.693298
 C         -78.877647     -212.403854      -70.749374
 H         -76.754410     -209.777405      -70.911758
 H         -76.087410     -211.207748      -71.790314
 H         -79.826981     -210.536758      -73.468025
 H         -78.824417     -212.022629      -73.574905
 H         -78.233337     -210.724869      -69.547722
 H         -77.054375     -212.065933      -69.867416
 H         -80.549316     -212.605377      -72.077057
 H         -80.245514     -210.950226      -71.260269
 H         -79.372223     -212.757706      -69.837952
 H         -78.463982     -213.347183      -71.177811
