20
 generated by VMD
 C         -32.253963      -94.956779      -25.521873
 N         -33.338963      -95.038879      -25.041752
 H         -33.979736      -94.714241      -28.120678
 H         -31.274275      -95.020470      -25.797594
 C         -34.287300      -93.910812      -28.717804
 C         -35.776295      -93.666901      -28.675303
 C         -33.332256      -93.501152      -29.804535
 C         -35.871338      -92.164902      -29.071430
 C         -33.663883      -92.031906      -30.169197
 C         -35.152470      -91.755081      -30.332174
 H         -36.300060      -93.613907      -27.689438
 H         -36.318836      -94.344849      -29.358496
 H         -32.300140      -93.647530      -29.407335
 H         -33.463848      -94.106216      -30.700296
 H         -35.607502      -91.463783      -28.258904
 H         -36.928673      -91.886368      -29.449883
 H         -33.059940      -91.774567      -31.029072
 H         -33.133778      -91.307907      -29.460037
 H         -35.208092      -90.639847      -30.361372
 H         -35.607883      -92.298065      -31.088026
