20
 generated by VMD
 C         -21.745369      -66.275688      -16.633633
 N         -20.878613      -66.736229      -16.057117
 H         -24.240335      -64.098839      -18.612026
 H         -22.617945      -65.672287      -16.846189
 C         -24.532419      -65.160751      -18.638748
 C         -24.459330      -65.653885      -20.050604
 C         -25.350159      -65.878876      -17.648893
 C         -24.295513      -67.201553      -20.039417
 C         -25.697971      -67.397461      -17.956722
 C         -25.477768      -67.890587      -19.361019
 H         -23.436451      -65.197105      -20.473328
 H         -25.243589      -65.250237      -20.751923
 H         -24.824492      -65.864624      -16.743876
 H         -26.288982      -65.370064      -17.588707
 H         -23.419291      -67.562187      -19.475447
 H         -24.087154      -67.577995      -21.047258
 H         -26.712900      -67.680756      -17.795633
 H         -25.059748      -67.980011      -17.253521
 H         -25.300125      -69.016151      -19.307201
 H         -26.390144      -67.773712      -19.907066
