20
 generated by VMD
 C         -79.724205     -205.355698      -71.778931
 N         -79.745567     -206.551834      -71.661644
 H         -77.523888     -203.896042      -71.378777
 H         -79.721504     -204.318039      -71.933029
 C         -76.548988     -204.159302      -70.966965
 C         -75.246643     -203.371841      -71.158089
 C         -76.309685     -205.546585      -70.403778
 C         -74.314079     -203.434296      -69.898315
 C         -75.318741     -205.663391      -69.232841
 C         -74.043846     -204.982834      -69.536598
 H         -75.482140     -202.282501      -71.263771
 H         -74.698624     -203.669266      -72.067444
 H         -77.326431     -205.656128      -70.001350
 H         -76.115646     -206.387863      -71.115036
 H         -74.863129     -203.058121      -68.987022
 H         -73.257210     -202.878571      -70.010078
 H         -75.256355     -206.699142      -69.056740
 H         -75.750450     -205.258530      -68.324837
 H         -73.424492     -204.864761      -68.618118
 H         -73.461266     -205.433624      -70.338142
