20
 generated by VMD
 C         -56.214088     -150.149582      -46.884449
 N         -57.059410     -150.394058      -46.109699
 H         -53.701523     -148.060242      -47.495243
 H         -55.407925     -149.784592      -47.550922
 C         -53.842785     -147.530457      -48.471638
 C         -53.096375     -148.010788      -49.769482
 C         -54.405781     -146.153809      -48.563553
 C         -53.873592     -147.741196      -51.068279
 C         -55.385025     -146.197235      -49.817139
 C         -54.678581     -146.471848      -51.120899
 H         -52.906437     -149.019333      -49.686256
 H         -52.084293     -147.460037      -49.802742
 H         -54.956905     -145.785004      -47.714371
 H         -53.657207     -145.319183      -48.866550
 H         -54.417835     -148.662933      -51.303295
 H         -53.139000     -147.648941      -51.814732
 H         -55.755623     -145.230286      -50.039753
 H         -56.138081     -147.016418      -49.593712
 H         -55.340706     -146.565674      -51.967052
 H         -53.974453     -145.629608      -51.274326
