20
 generated by VMD
 C         -22.955843      -53.007381      -12.523260
 N         -22.780350      -52.575535      -13.651659
 H         -20.457006      -54.657562      -14.124478
 H         -23.042233      -53.694733      -11.800306
 C         -19.421629      -54.271202      -13.969403
 C         -18.947443      -52.860222      -14.113666
 C         -18.506508      -55.497395      -13.583671
 C         -17.649042      -52.591251      -13.289972
 C         -17.137400      -55.008453      -13.008603
 C         -16.696117      -53.706081      -13.608996
 H         -19.698067      -52.096615      -13.827402
 H         -18.703863      -52.834305      -15.173840
 H         -19.027544      -56.135426      -12.876564
 H         -18.383394      -56.157864      -14.528696
 H         -17.859264      -52.602989      -12.199196
 H         -17.262571      -51.600430      -13.534560
 H         -16.349516      -55.694717      -13.188076
 H         -17.172607      -54.877335      -11.863168
 H         -15.703851      -53.512299      -13.287251
 H         -16.725103      -53.749184      -14.672812
