20
 generated by VMD
 C         -79.969482     -205.452621      -71.598625
 N         -79.980766     -206.596085      -71.544487
 H         -77.391495     -203.260345      -70.698463
 H         -80.045189     -204.420151      -71.639053
 C         -76.388756     -203.687286      -70.695831
 C         -75.242439     -202.647141      -70.497452
 C         -76.191391     -205.064194      -70.165031
 C         -73.793076     -203.221771      -70.279823
 C         -74.979980     -205.022354      -69.056610
 C         -73.652580     -204.585876      -69.707787
 H         -75.530914     -201.955917      -69.669418
 H         -75.265892     -202.122208      -71.445206
 H         -77.068657     -205.579697      -69.677956
 H         -76.034393     -205.588196      -71.112724
 H         -73.287872     -202.408768      -69.659462
 H         -73.328247     -203.182587      -71.268082
 H         -74.870300     -206.061630      -68.587021
 H         -75.263725     -204.427750      -68.248459
 H         -72.760796     -204.582001      -69.112122
 H         -73.472687     -205.208588      -70.581902
