20
 generated by VMD
 C         -31.348768      -78.397141      -26.318802
 N         -31.469896      -77.921295      -27.382172
 H         -29.355778      -79.658203      -24.458479
 H         -31.068293      -78.886650      -25.314177
 C         -29.082047      -80.320572      -23.589867
 C         -27.680536      -80.396347      -23.184298
 C         -29.979769      -81.417999      -23.165087
 C         -27.474398      -80.978165      -21.784910
 C         -29.733870      -82.018837      -21.788321
 C         -28.248497      -82.242928      -21.682690
 H         -27.302263      -79.397278      -23.388069
 H         -27.130676      -81.094566      -23.836906
 H         -30.963537      -81.117195      -23.506529
 H         -29.730690      -82.263489      -23.832527
 H         -27.668968      -80.248764      -20.975832
 H         -26.456661      -81.222000      -21.719711
 H         -30.349897      -82.869751      -21.743162
 H         -29.933512      -81.293030      -20.911852
 H         -27.929054      -82.784729      -20.727146
 H         -28.040651      -82.920074      -22.566713
