20
 generated by VMD
 C         -19.659262      -58.411064      -17.200642
 N         -19.269018      -58.790783      -18.216164
 H         -22.440088      -59.680622      -16.483501
 H         -20.111393      -58.222603      -16.217384
 C         -22.739901      -60.722267      -16.202463
 C         -23.625359      -61.562691      -17.051691
 C         -22.616064      -61.209644      -14.788681
 C         -23.414452      -63.059563      -16.893421
 C         -22.032770      -62.647583      -14.890296
 C         -23.166712      -63.527210      -15.485478
 H         -23.434082      -61.283531      -18.083851
 H         -24.713823      -61.334476      -16.801174
 H         -21.840441      -60.504040      -14.254087
 H         -23.578835      -61.418392      -14.300273
 H         -22.580545      -63.424366      -17.554951
 H         -24.307491      -63.632282      -17.370481
 H         -21.836191      -62.941380      -13.818004
 H         -21.225052      -62.545486      -15.619474
 H         -22.796650      -64.572227      -15.425955
 H         -24.093510      -63.544834      -14.889642
