20
 generated by VMD
 C         -67.461220     -191.862076      -67.360046
 N         -67.337906     -192.730362      -66.608925
 H         -69.982750     -189.690094      -65.570389
 H         -67.673004     -191.241837      -68.205551
 C         -70.999382     -189.873672      -65.336845
 C         -71.787949     -190.989578      -66.006264
 C         -71.513283     -189.244095      -64.007790
 C         -73.104187     -191.424057      -65.414520
 C         -72.942192     -189.677917      -63.610310
 C         -73.212654     -191.146484      -63.921352
 H         -71.172531     -191.907166      -65.882744
 H         -71.907959     -190.789093      -67.095963
 H         -70.788773     -189.641541      -63.206871
 H         -71.476326     -188.098465      -64.118156
 H         -73.269684     -192.475372      -65.648338
 H         -73.871117     -191.050018      -66.072998
 H         -73.574471     -188.906891      -64.076775
 H         -73.142273     -189.436737      -62.591709
 H         -72.388626     -191.669739      -63.478676
 H         -74.308167     -191.206650      -63.559875
