20
 generated by VMD
 C         -20.475487      -52.310642       -9.682750
 N         -21.156376      -51.729015      -10.469808
 H         -18.482841      -49.416389      -10.905092
 H         -19.776104      -52.590763       -9.150112
 C         -17.831099      -49.538006      -11.721014
 C         -17.332481      -50.916351      -12.103247
 C         -17.100294      -48.355385      -12.195320
 C         -16.759247      -51.092491      -13.477761
 C         -17.014063      -48.570385      -13.701250
 C         -16.075838      -49.785538      -13.905670
 H         -18.064026      -51.681099      -11.761900
 H         -16.439579      -51.016300      -11.512179
 H         -17.626562      -47.394100      -11.995872
 H         -16.111031      -48.281113      -11.688303
 H         -17.580496      -51.392365      -14.142736
 H         -15.952165      -51.894817      -13.429608
 H         -16.498528      -47.682125      -14.128292
 H         -18.093668      -48.693771      -14.150515
 H         -15.727624      -49.900497      -14.935854
 H         -15.168139      -49.639912      -13.327122
