20
 generated by VMD
 C         -74.110725     -201.040634      -65.813980
 N         -73.010246     -200.926041      -66.183586
 H         -75.996529     -198.348190      -67.568764
 H         -75.131691     -201.414566      -65.644638
 C         -75.127510     -198.009171      -68.171638
 C         -74.843521     -196.492905      -67.860352
 C         -74.495773     -198.827988      -69.243332
 C         -73.462273     -196.013443      -68.384644
 C         -73.367836     -198.033630      -69.896988
 C         -72.654610     -197.107910      -68.896423
 H         -74.847771     -196.389526      -66.849030
 H         -75.781067     -195.994537      -68.306427
 H         -73.920982     -199.678726      -68.861969
 H         -75.266106     -199.158554      -69.970871
 H         -73.077744     -195.487503      -67.552040
 H         -73.686531     -195.330566      -69.207970
 H         -73.860962     -197.414627      -70.639503
 H         -72.674721     -198.574738      -70.459076
 H         -72.281136     -197.615921      -67.938126
 H         -71.835884     -196.733490      -69.414314
