20
 generated by VMD
 C         -15.112700      -46.264545       -5.927347
 N         -14.788391      -47.325706       -5.749272
 H         -15.607506      -45.002491       -9.533578
 H         -14.693013      -45.109318      -10.949659
 C         -15.740922      -45.114445      -10.588813
 C         -16.413284      -43.837231      -11.131768
 C         -16.450111      -46.371269      -10.919276
 C         -16.620483      -43.959156      -12.611145
 C         -16.598951      -46.424088      -12.438460
 C         -17.321199      -45.227634      -13.102612
 H         -15.823292      -42.938972      -10.860038
 H         -17.366484      -43.696163      -10.544235
 H         -15.912834      -47.302471      -10.643674
 H         -17.452532      -46.467571      -10.373889
 H         -15.699740      -43.780682      -13.178598
 H         -17.282896      -43.145477      -12.981021
 H         -16.986658      -47.372765      -12.748067
 H         -15.490240      -46.418835      -12.815166
 H         -17.255194      -45.212578      -14.163549
 H         -18.375101      -45.243866      -12.738504
