20
 generated by VMD
 C         -21.123220      -52.460480      -11.423183
 N         -21.452496      -52.881939      -10.383657
 H         -19.616079      -50.134869      -13.698214
 H         -21.110094      -52.091038      -12.682114
 C         -18.869305      -50.787277      -13.288230
 C         -18.438711      -51.975693      -14.159032
 C         -18.043879      -50.364742      -12.102854
 C         -16.922747      -51.988628      -14.336100
 C         -16.534334      -50.290382      -12.334404
 C         -16.157782      -51.609856      -13.039931
 H         -19.017773      -51.920750      -15.127765
 H         -18.738199      -52.895561      -13.686551
 H         -18.454332      -49.454346      -11.745025
 H         -18.237305      -51.138542      -11.355474
 H         -16.693361      -51.424744      -15.237228
 H         -16.657194      -53.028580      -14.515842
 H         -15.951409      -50.117718      -11.356696
 H         -16.258572      -49.540188      -13.036986
 H         -15.083346      -51.532650      -13.382792
 H         -16.164576      -52.481613      -12.319511
