20
 generated by VMD
 C         -52.502136     -146.957230      -45.336918
 N         -53.198792     -147.379257      -44.548153
 H         -54.897591     -147.233795      -48.201355
 H         -51.810478     -146.413651      -46.000092
 C         -54.700993     -146.246674      -48.618435
 C         -53.298244     -146.039688      -49.269085
 C         -55.324875     -144.965088      -47.953743
 C         -53.303253     -144.925400      -50.313145
 C         -55.218746     -143.815994      -49.023197
 C         -53.830341     -143.619080      -49.724106
 H         -53.050602     -146.979599      -49.813618
 H         -52.588261     -146.039368      -48.504478
 H         -56.280300     -145.169800      -47.481293
 H         -54.801830     -144.635437      -47.089523
 H         -53.716614     -145.217224      -51.208752
 H         -52.317562     -144.824631      -50.791176
 H         -55.527695     -142.748779      -48.721275
 H         -55.956268     -144.043472      -49.818336
 H         -53.969795     -142.934662      -50.563782
 H         -53.111267     -143.125214      -49.092770
