20
 generated by VMD
 C         -18.270393      -48.700047       -7.204116
 N         -18.977371      -49.529610       -6.986708
 H         -16.207155      -47.715130      -10.120296
 H         -16.455072      -49.003967      -11.186780
 C         -16.325676      -47.915009      -11.196132
 C         -15.062601      -47.453308      -11.968157
 C         -17.685032      -47.292130      -11.654667
 C         -15.391134      -47.427376      -13.479404
 C         -17.814425      -47.696800      -13.115634
 C         -16.778564      -46.923183      -13.874381
 H         -14.155873      -48.105968      -11.869541
 H         -14.938748      -46.423405      -11.644085
 H         -18.501968      -47.735657      -11.060422
 H         -17.650345      -46.180702      -11.534369
 H         -15.297812      -48.466873      -13.826409
 H         -14.623725      -46.828606      -13.975796
 H         -18.847288      -47.400860      -13.453012
 H         -17.812532      -48.837696      -13.250838
 H         -16.893167      -47.093906      -14.939563
 H         -16.926420      -45.845646      -13.755014
