20
 generated by VMD
 C         -58.885227     -161.106262      -56.660332
 N         -58.537468     -160.116196      -57.241180
 H         -58.984802     -164.018341      -55.052395
 H         -59.130539     -162.030090      -56.092918
 C         -59.734516     -163.487213      -54.465843
 C         -59.548065     -163.289932      -52.955223
 C         -61.087090     -163.466919      -55.127285
 C         -60.393372     -162.120041      -52.399506
 C         -62.029259     -162.434738      -54.369102
 C         -61.875305     -162.269943      -52.818523
 H         -58.490124     -163.252655      -52.713879
 H         -59.849449     -164.214203      -52.469086
 H         -60.989567     -163.169022      -56.177830
 H         -61.588661     -164.449738      -55.020294
 H         -60.015301     -161.166733      -52.927784
 H         -60.149918     -161.937851      -51.287674
 H         -62.960110     -162.480377      -54.931427
 H         -61.698448     -161.456512      -54.653740
 H         -62.221069     -161.227905      -52.547932
 H         -62.314964     -163.012039      -52.186253
