20
 generated by VMD
 C         -38.018555     -109.778313      -36.352753
 N         -37.425926     -108.879379      -35.953781
 H         -40.396866     -112.807724      -36.555222
 H         -38.343437     -110.602005      -36.939251
 C         -41.379124     -112.652161      -36.161457
 C         -42.358315     -113.684219      -36.516186
 C         -41.646973     -111.543617      -35.297054
 C         -43.139545     -114.064629      -35.294827
 C         -42.336487     -111.995308      -33.994320
 C         -43.505089     -112.943489      -34.303909
 H         -41.834492     -114.481522      -36.995075
 H         -43.017460     -113.390808      -37.350105
 H         -40.726776     -111.184509      -34.839302
 H         -42.091080     -110.660660      -35.782146
 H         -42.514404     -114.738617      -34.675632
 H         -43.976814     -114.525566      -35.627316
 H         -42.651840     -111.199753      -33.334713
 H         -41.508278     -112.584045      -33.549915
 H         -43.889629     -113.517365      -33.361553
 H         -44.308495     -112.409744      -34.735733
