20
 generated by VMD
 C          -0.991568      -10.535424        1.075235
 N          -1.701352       -9.697462        0.758132
 H          -3.405431      -12.413072        0.851903
 H          -4.306635      -12.067442        2.265470
 C          -4.070029      -12.852509        1.587589
 C          -3.195937      -13.942050        2.367632
 C          -5.284389      -13.495013        0.963819
 C          -4.048076      -14.831283        3.314472
 C          -6.153198      -14.211025        1.970369
 C          -5.350600      -15.299342        2.639115
 H          -2.426310      -13.490153        2.963367
 H          -2.792986      -14.591044        1.625830
 H          -5.835052      -12.620271        0.468476
 H          -4.893371      -14.105465        0.099429
 H          -4.422385      -14.327922        4.192375
 H          -3.583576      -15.756505        3.702022
 H          -6.989373      -14.648596        1.443651
 H          -6.562141      -13.523896        2.699791
 H          -5.913468      -16.023081        3.254160
 H          -4.955654      -15.915082        1.763584
