20
 generated by VMD
 C         -21.900190      -55.360775      -17.394506
 N         -21.912895      -55.649418      -18.474819
 H         -22.096476      -57.001888      -14.373713
 H         -22.142418      -54.955147      -16.409061
 C         -21.365873      -57.848770      -14.220654
 C         -21.006706      -58.475449      -12.890972
 C         -20.349524      -57.935101      -15.348254
 C         -20.823750      -59.991058      -13.093336
 C         -20.181398      -59.412903      -15.638235
 C         -19.817205      -60.243221      -14.278852
 H         -21.769627      -58.323456      -12.118632
 H         -20.007505      -58.039036      -12.494261
 H         -20.463928      -57.335541      -16.234541
 H         -19.456491      -57.557747      -14.899304
 H         -21.784315      -60.434158      -13.290609
 H         -20.552004      -60.551895      -12.194106
 H         -19.469118      -59.600204      -16.430153
 H         -21.106739      -59.903515      -16.015688
 H         -19.855162      -61.299484      -14.421492
 H         -18.780497      -59.926830      -13.962636
