20
 generated by VMD
 C          -7.067004      -23.145720        2.625666
 N          -6.068994      -22.655315        2.770824
 H          -6.297550      -20.898436       -0.197774
 H          -7.934246      -21.693777       -0.644198
 C          -7.002959      -21.173840       -1.028528
 C          -6.301934      -22.023943       -2.070811
 C          -7.250387      -19.787231       -1.618505
 C          -7.070659      -22.145027       -3.370851
 C          -8.073384      -19.851477       -2.933701
 C          -7.369315      -20.752262       -3.986827
 H          -6.115552      -23.009098       -1.678425
 H          -5.237356      -21.711609       -2.159890
 H          -7.870059      -19.363913       -0.859262
 H          -6.278854      -19.247938       -1.772846
 H          -8.027691      -22.694853       -3.180455
 H          -6.462759      -22.681047       -4.120511
 H          -8.034234      -18.797499       -3.315533
 H          -9.107548      -20.226702       -2.775249
 H          -7.950352      -20.777599       -4.941865
 H          -6.346039      -20.333920       -4.277164
