20
 generated by VMD
 C         -58.171864     -165.617401      -56.299080
 N         -57.252720     -165.314606      -56.957851
 H         -60.910683     -164.524719      -53.695251
 H         -58.983475     -165.907166      -55.603390
 C         -61.364231     -164.848312      -54.556190
 C         -61.748520     -166.303970      -54.678211
 C         -61.846893     -164.021454      -55.630924
 C         -63.284336     -166.430984      -54.854736
 C         -63.363258     -164.031128      -55.860332
 C         -63.859680     -165.527435      -55.981281
 H         -61.342762     -166.928329      -53.958073
 H         -61.394485     -166.652588      -55.658867
 H         -61.615627     -162.981598      -55.563595
 H         -61.432926     -164.300507      -56.543018
 H         -63.686344     -166.231003      -53.913498
 H         -63.408958     -167.428787      -55.074097
 H         -63.596172     -163.767502      -56.908573
 H         -64.051628     -163.537079      -55.041512
 H         -64.952209     -165.604599      -55.890942
 H         -63.686123     -165.981735      -57.018726
