20
 generated by VMD
 C         -10.625513      -33.277695       -8.687713
 N         -11.428428      -33.569141       -9.418652
 H         -12.999454      -33.803123       -6.090485
 H         -13.024055      -34.627323       -4.595964
 C         -12.909952      -34.801609       -5.653765
 C         -11.522353      -35.419388       -5.925094
 C         -14.085070      -35.577862       -6.282860
 C         -11.462914      -36.918228       -5.496882
 C         -13.995721      -36.972816       -5.691607
 C         -12.685724      -37.656345       -6.054056
 H         -10.744226      -34.900848       -5.401028
 H         -11.223134      -35.388477       -6.947988
 H         -15.089841      -35.256020       -6.040976
 H         -14.082777      -35.545670       -7.413277
 H         -11.392257      -36.973396       -4.449532
 H         -10.528466      -37.310875       -5.930976
 H         -14.791512      -37.542969       -6.175392
 H         -14.182052      -36.998215       -4.642911
 H         -12.762940      -38.742401       -5.824715
 H         -12.599676      -37.624775       -7.166726
