20
 generated by VMD
 C         -13.712071      -28.198605       -3.517249
 N         -14.034502      -27.287802       -4.093426
 H         -10.359306      -28.663338       -2.530170
 H         -10.236902      -27.543325       -3.808504
 C          -9.603077      -28.339939       -3.254180
 C          -9.114741      -29.347580       -4.315305
 C          -8.475381      -27.713404       -2.475004
 C          -7.940440      -28.726276       -5.140771
 C          -7.346373      -27.148474       -3.331157
 C          -6.811293      -28.179491       -4.270553
 H          -9.838391      -29.730484       -5.108064
 H          -8.661189      -30.121861       -3.707615
 H          -8.852741      -26.944038       -1.752288
 H          -8.085081      -28.479446       -1.801942
 H          -8.369858      -27.859095       -5.625498
 H          -7.581059      -29.510201       -5.848999
 H          -6.536508      -26.770517       -2.688274
 H          -7.760426      -26.323215       -3.951731
 H          -5.982259      -27.852295       -4.940485
 H          -6.456241      -29.029598       -3.724387
