20
 generated by VMD
 C         -33.911503      -97.124657      -26.309191
 N         -34.853661      -97.071846      -25.623125
 H         -35.552933      -93.947174      -27.524740
 H         -33.051277      -97.288689      -26.860561
 C         -35.142883      -94.041786      -28.536728
 C         -36.049294      -94.809082      -29.505896
 C         -33.742500      -93.692993      -28.887388
 C         -35.958385      -94.192024      -30.844770
 C         -33.795177      -93.107498      -30.402855
 C         -34.531284      -94.012657      -31.348118
 H         -37.052406      -94.750122      -29.163858
 H         -35.695312      -95.822159      -29.431250
 H         -33.385242      -92.816826      -28.378086
 H         -33.011536      -94.474068      -28.836260
 H         -36.310749      -93.201462      -30.716312
 H         -36.581177      -94.606346      -31.678583
 H         -32.743923      -92.905556      -30.610382
 H         -34.207050      -92.091705      -30.520132
 H         -34.325272      -93.613167      -32.386253
 H         -34.017105      -94.900681      -31.357716
