20
 generated by VMD
 C         -41.606720     -120.206161      -34.102905
 N         -42.121685     -121.151321      -34.439198
 H         -43.458549     -119.505585      -37.287460
 H         -40.885685     -119.343636      -34.000481
 C         -43.915710     -118.919518      -38.148163
 C         -43.114227     -118.682381      -39.367519
 C         -45.246971     -118.406738      -38.082592
 C         -43.978722     -118.851105      -40.650333
 C         -46.062183     -118.332474      -39.425064
 C         -45.251122     -117.948982      -40.672279
 H         -42.472893     -119.503731      -39.465172
 H         -42.713142     -117.687851      -39.465130
 H         -45.692501     -119.044823      -37.415184
 H         -45.357811     -117.378693      -37.745979
 H         -44.259953     -119.937653      -40.800247
 H         -43.358543     -118.624443      -41.493519
 H         -47.003021     -117.635170      -39.205235
 H         -46.442406     -119.376076      -39.711739
 H         -45.893509     -118.287247      -41.499058
 H         -44.984539     -116.798988      -40.596268
