20
 generated by VMD
 C         -61.671066     -154.594727      -53.869926
 N         -62.239487     -155.635956      -53.815273
 H         -58.216740     -154.907715      -52.154755
 H         -61.332550     -153.599609      -54.077461
 C         -57.260735     -154.924683      -51.631100
 C         -57.339085     -154.329529      -50.231861
 C         -55.919247     -154.686096      -52.427116
 C         -56.061790     -154.668808      -49.468384
 C         -54.700672     -155.096954      -51.610817
 C         -54.660656     -154.469910      -50.262592
 H         -58.275631     -154.571564      -49.843895
 H         -57.335369     -153.250168      -50.128860
 H         -56.052456     -155.208160      -53.378922
 H         -55.873367     -153.613174      -52.680504
 H         -56.003910     -155.766510      -49.267216
 H         -56.079529     -154.387863      -48.438450
 H         -53.822090     -154.792847      -52.160675
 H         -54.452293     -156.159943      -51.514500
 H         -53.853912     -154.809937      -49.677063
 H         -54.576744     -153.306549      -50.361080
