20
 generated by VMD
 C         -77.486938     -203.091400      -68.506882
 N         -77.659760     -204.021393      -67.863403
 H         -74.462418     -200.978683      -67.131348
 H         -77.282295     -202.159225      -68.900978
 C         -74.378143     -200.768112      -68.211029
 C         -75.095299     -199.556534      -68.605690
 C         -73.927917     -201.840561      -69.201302
 C         -74.350182     -198.893860      -69.683708
 C         -73.070808     -201.016403      -70.175552
 C         -73.774193     -199.852966      -70.737465
 H         -75.265198     -198.919601      -67.771164
 H         -76.051216     -199.901901      -69.084686
 H         -73.394463     -202.768021      -68.873909
 H         -74.761696     -202.259857      -69.758575
 H         -73.548485     -198.295258      -69.094933
 H         -75.034538     -198.146942      -70.149551
 H         -72.820961     -201.804352      -70.942764
 H         -72.083755     -200.675339      -69.643051
 H         -73.149017     -199.337219      -71.381210
 H         -74.686096     -200.312164      -71.263123
