20
 generated by VMD
 C         -40.102051     -100.838120      -30.948801
 N         -40.394970      -99.915993      -31.544266
 H         -37.176453     -103.162857      -31.364090
 H         -39.718094     -101.600647      -30.192383
 C         -36.664696     -102.232780      -31.283566
 C         -36.352890     -101.634811      -32.597923
 C         -35.951145     -101.815140      -30.051781
 C         -36.198235     -100.127609      -32.469067
 C         -35.732208     -100.383286      -29.953505
 C         -35.254868      -99.747307      -31.320452
 H         -37.137081     -101.802681      -33.394070
 H         -35.387947     -102.026894      -32.947838
 H         -36.463837     -102.269875      -29.228304
 H         -34.924103     -102.337433      -30.025673
 H         -37.028606      -99.480537      -32.230030
 H         -35.736263      -99.785385      -33.423218
 H         -34.844765     -100.228691      -29.247513
 H         -36.568321      -99.878601      -29.575947
 H         -35.150608      -98.669304      -31.099480
 H         -34.263561     -100.182922      -31.687292
