20
 generated by VMD
 C         -11.550079      -33.469471       -8.686266
 N         -10.501921      -33.605648       -8.986115
 H         -12.339705      -34.695747       -7.432736
 H         -12.826058      -34.824894       -5.611227
 C         -12.695047      -35.416214       -6.549864
 C         -11.607214      -36.482117       -6.375280
 C         -14.105536      -35.972782       -6.856316
 C         -12.047936      -37.530609       -5.368088
 C         -14.402119      -37.120815       -5.915749
 C         -13.290476      -38.213921       -5.862254
 H         -10.646452      -35.978882       -6.079509
 H         -11.403723      -36.977348       -7.337874
 H         -14.867783      -35.188290       -6.871691
 H         -14.224552      -36.398506       -7.901983
 H         -12.104781      -37.032005       -4.379953
 H         -11.182971      -38.230915       -5.288277
 H         -15.321809      -37.560829       -6.162578
 H         -14.620790      -36.705986       -4.867691
 H         -13.565206      -38.943371       -5.087501
 H         -13.278299      -38.767536       -6.761904
