20
 generated by VMD
 C         -21.068453      -56.457642      -17.117931
 N         -21.039797      -55.425697      -17.740847
 H         -23.221584      -58.856098      -15.933140
 H         -21.278984      -57.236435      -16.505278
 C         -22.242760      -59.205055      -15.596090
 C         -21.907621      -58.980518      -14.057611
 C         -21.684744      -60.297901      -16.365974
 C         -21.007095      -59.986912      -13.383148
 C         -20.458532      -60.939240      -15.718143
 C         -20.689602      -61.174896      -14.231989
 H         -22.929602      -58.948921      -13.621306
 H         -21.433847      -58.018757      -13.838256
 H         -22.507309      -60.999073      -16.322187
 H         -21.672596      -60.067059      -17.410189
 H         -21.545855      -60.262035      -12.447307
 H         -20.039976      -59.493599      -13.211847
 H         -19.710016      -60.207630      -15.709148
 H         -20.099642      -61.756821      -16.312746
 H         -21.571033      -61.826427      -14.213933
 H         -19.859207      -61.730289      -13.831733
