20
 generated by VMD
 C         -30.034533      -79.279381      -25.854172
 N         -30.946100      -78.604736      -26.087999
 H         -28.432806      -82.928749      -25.656933
 H         -29.225241      -79.910591      -25.783726
 C         -28.909517      -82.874687      -24.724438
 C         -28.244606      -81.941406      -23.691723
 C         -29.929544      -83.814789      -24.093958
 C         -29.330379      -81.316940      -22.766008
 C         -30.831177      -83.104431      -23.132872
 C         -30.191113      -82.328583      -22.094790
 H         -27.699612      -81.092049      -24.215517
 H         -27.569742      -82.545708      -23.043938
 H         -30.601212      -84.218658      -24.863653
 H         -29.328821      -84.667809      -23.657284
 H         -29.991409      -80.724289      -23.325058
 H         -28.721222      -80.570610      -22.171467
 H         -31.537025      -83.883400      -22.699738
 H         -31.519733      -82.463448      -23.712469
 H         -31.040987      -81.802383      -21.606522
 H         -29.746771      -83.032135      -21.415751
