20
 generated by VMD
 C         -41.128029     -101.489876      -32.628292
 N         -41.946171     -101.501099      -33.453884
 H         -38.771492     -102.963440      -32.423714
 H         -40.384422     -101.119751      -31.941889
 C         -37.747002     -102.861618      -32.018402
 C         -36.592949     -102.723511      -33.039360
 C         -37.431496     -103.093880      -30.568512
 C         -35.232410     -102.254112      -32.357380
 C         -36.244881     -102.350800      -30.000271
 C         -34.984184     -102.715149      -30.852877
 H         -37.091129     -102.106102      -33.792263
 H         -36.520042     -103.724670      -33.438435
 H         -38.320107     -102.699921      -30.114763
 H         -37.444084     -104.262405      -30.376465
 H         -35.251160     -101.216942      -32.357342
 H         -34.401878     -102.584991      -32.962128
 H         -36.202316     -102.631500      -28.908014
 H         -36.311268     -101.276932      -30.012445
 H         -34.078960     -102.184212      -30.629511
 H         -34.869034     -103.777985      -30.823198
