20
 generated by VMD
 C         -28.489803      -84.529587      -26.593666
 N         -27.880116      -83.621498      -26.892107
 H         -31.327330      -84.498619      -26.350500
 H         -28.994864      -85.541145      -26.358946
 C         -31.389736      -85.449287      -25.851881
 C         -31.518837      -85.525063      -24.223169
 C         -31.868805      -86.646629      -26.642530
 C         -32.882812      -86.132889      -23.844742
 C         -33.311768      -87.032516      -26.113003
 C         -33.249638      -87.260490      -24.661406
 H         -31.372961      -84.575958      -23.816700
 H         -30.624901      -86.077606      -23.826677
 H         -31.989361      -86.383690      -27.737385
 H         -31.188381      -87.484634      -26.550560
 H         -33.616573      -85.381203      -24.056658
 H         -33.005821      -86.147942      -22.790609
 H         -33.860821      -87.806755      -26.653086
 H         -34.004036      -86.160309      -26.132669
 H         -34.171246      -87.713539      -24.469751
 H         -32.493256      -88.031860      -24.420380
