20
 generated by VMD
 C         -12.031787      -41.428135       -7.627898
 N         -11.713338      -40.689877       -6.839486
 H         -14.052406      -40.764397       -8.124770
 H         -15.085319      -40.162457       -9.452519
 C         -14.747762      -41.071556       -8.974808
 C         -15.907992      -41.691006       -8.102252
 C         -14.190533      -41.998127      -10.071862
 C         -17.063293      -42.205608       -9.016725
 C         -15.342482      -42.487171      -10.902039
 C         -16.540785      -43.092293      -10.171451
 H         -16.390915      -40.899536       -7.521266
 H         -15.575321      -42.480110       -7.488657
 H         -13.448996      -41.420067      -10.618173
 H         -13.746609      -42.826183       -9.643950
 H         -17.603987      -41.355186       -9.370554
 H         -17.735197      -42.819870       -8.408647
 H         -14.927799      -43.229797      -11.593529
 H         -15.711912      -41.655895      -11.570767
 H         -17.325560      -43.404655      -10.921997
 H         -16.242947      -44.055676       -9.718919
