20
 generated by VMD
 C         -39.603889     -107.641403      -37.794273
 N         -39.059586     -106.601990      -37.843811
 H         -39.387817     -108.403450      -35.064167
 H         -40.241222     -108.501526      -37.512878
 C         -39.910950     -109.131195      -34.406982
 C         -39.035320     -110.194702      -33.705109
 C         -41.423355     -109.017288      -34.138798
 C         -39.756779     -110.983917      -32.629299
 C         -41.931473     -109.865036      -32.926018
 C         -41.275078     -111.169899      -32.739456
 H         -38.160538     -109.855576      -33.177452
 H         -38.868732     -110.973473      -34.425667
 H         -41.871181     -108.003448      -34.108349
 H         -41.878315     -109.543526      -35.042213
 H         -39.492916     -110.475906      -31.632107
 H         -39.320576     -112.041031      -32.490913
 H         -43.027832     -110.074463      -32.889179
 H         -41.815353     -109.290955      -32.026951
 H         -41.639919     -111.631073      -31.838234
 H         -41.513176     -111.821182      -33.619106
