20
 generated by VMD
 C          -1.751665      -12.983236        0.554489
 N          -1.306820      -13.889139        1.046267
 H          -3.601931      -14.931684        1.707253
 H          -4.456658      -14.918347        0.162054
 C          -4.505710      -15.307909        1.184734
 C          -5.744671      -14.757092        1.900367
 C          -4.516454      -16.848053        0.943871
 C          -6.993498      -15.247622        1.140440
 C          -5.784187      -17.184902        0.181850
 C          -6.989374      -16.774948        0.935004
 H          -5.640097      -13.659705        1.970623
 H          -5.813711      -15.028195        3.020210
 H          -3.737797      -17.089426        0.325529
 H          -4.489504      -17.373556        1.843470
 H          -7.064682      -14.695712        0.208340
 H          -7.873928      -14.943716        1.685228
 H          -5.800659      -18.240326        0.002087
 H          -5.703255      -16.711685       -0.778808
 H          -7.919125      -17.074196        0.400214
 H          -7.058988      -17.270567        1.910507
