20
 generated by VMD
 C         -23.040264      -53.072182      -12.626170
 N         -22.810976      -52.559364      -13.645041
 H         -20.487938      -54.572079      -14.061049
 H         -23.275867      -53.195927      -11.651423
 C         -19.401075      -54.341148      -13.800426
 C         -18.832005      -52.999138      -14.177011
 C         -18.519360      -55.487862      -13.679646
 C         -17.757269      -52.646629      -13.245619
 C         -17.201893      -55.076580      -13.089086
 C         -16.654123      -53.708153      -13.616225
 H         -19.626404      -52.225487      -13.992673
 H         -18.464840      -53.006329      -15.296954
 H         -19.014122      -56.228664      -13.015824
 H         -18.265009      -55.969738      -14.631929
 H         -18.095940      -52.737766      -12.195156
 H         -17.405807      -51.611607      -13.394662
 H         -16.469694      -55.879025      -13.246626
 H         -17.234114      -54.943680      -11.994802
 H         -15.728325      -53.545883      -13.038899
 H         -16.468908      -53.706215      -14.692796
