20
 generated by VMD
 C         -47.738091     -138.074585      -45.910927
 N         -47.256359     -137.682449      -46.946831
 H         -50.352600     -137.823883      -44.300777
 H         -48.042278     -138.138443      -44.888569
 C         -51.273838     -138.061859      -44.844696
 C         -51.382130     -138.537460      -46.220390
 C         -52.555202     -137.637085      -44.017250
 C         -52.405220     -139.717560      -46.203541
 C         -53.583992     -138.721863      -44.152878
 C         -53.718472     -139.310852      -45.645226
 H         -50.357330     -138.950409      -46.527473
 H         -51.794655     -137.721634      -46.940399
 H         -52.375603     -137.498932      -42.970558
 H         -53.000755     -136.816132      -44.579620
 H         -52.058964     -140.632217      -45.558750
 H         -52.484798     -139.953415      -47.276585
 H         -54.464828     -138.272675      -43.801456
 H         -53.085709     -139.533569      -43.563427
 H         -54.389557     -140.112457      -45.561153
 H         -54.227921     -138.550598      -46.292095
