20
 generated by VMD
 C         -69.177948     -180.345062      -59.566769
 N         -68.632996     -180.931015      -60.380726
 H         -67.529785     -176.917175      -59.583958
 H         -69.750229     -179.922638      -58.732903
 C         -66.416008     -176.894485      -59.962681
 C         -66.047295     -176.637299      -61.371765
 C         -65.293221     -176.949722      -58.957951
 C         -64.849449     -175.694046      -61.511826
 C         -64.068344     -176.012558      -59.171291
 C         -63.697777     -176.070389      -60.627583
 H         -66.972595     -176.285294      -61.897820
 H         -65.777695     -177.606918      -61.831390
 H         -65.615173     -176.837448      -57.911194
 H         -64.868927     -177.913116      -58.951538
 H         -65.194366     -174.658768      -61.191277
 H         -64.598618     -175.492386      -62.532669
 H         -63.191605     -176.094666      -58.586273
 H         -64.312752     -174.940659      -59.063641
 H         -62.840225     -175.401321      -60.554985
 H         -63.250393     -177.024719      -60.845139
