20
 generated by VMD
 C         -41.101990     -104.490532      -35.788136
 N         -42.040615     -104.908035      -36.352589
 H         -37.904057     -104.153885      -33.640446
 H         -40.150578     -104.282127      -35.307442
 C         -38.065781     -104.933846      -32.954090
 C         -36.886139     -105.337708      -32.145321
 C         -39.162041     -105.986061      -33.226360
 C         -37.193329     -106.526375      -31.224031
 C         -39.327404     -107.006721      -32.188602
 C         -38.044296     -107.689110      -31.715076
 H         -36.474182     -104.544838      -31.596285
 H         -36.177452     -105.509392      -32.892185
 H         -40.128265     -105.596458      -33.339420
 H         -38.865498     -106.512642      -34.224354
 H         -37.766586     -106.221786      -30.293282
 H         -36.265671     -107.063469      -30.934624
 H         -39.847351     -107.771049      -32.669010
 H         -39.868279     -106.668671      -31.290966
 H         -38.149456     -108.535629      -30.923689
 H         -37.527611     -108.080200      -32.548981
