20
 generated by VMD
 C         -12.669865      -30.204317       -8.200729
 N         -13.227777      -30.736782       -7.390490
 H         -11.093501      -30.521015       -5.203252
 H         -10.601732      -31.019619       -3.637909
 C         -10.827033      -31.355139       -4.681465
 C          -9.536633      -31.934448       -5.201239
 C         -11.992864      -32.409389       -4.742991
 C          -9.135974      -33.196163       -4.539633
 C         -11.580505      -33.740528       -4.077342
 C         -10.249667      -34.189529       -4.548439
 H          -8.722708      -31.130114       -5.127735
 H          -9.589264      -32.142456       -6.246480
 H         -12.933458      -32.029545       -4.326538
 H         -12.259571      -32.653759       -5.784818
 H          -8.844915      -33.027210       -3.476872
 H          -8.225458      -33.692280       -4.986884
 H         -12.381843      -34.473316       -4.177191
 H         -11.466765      -33.615379       -2.954330
 H          -9.951175      -35.027691       -3.951946
 H         -10.388380      -34.687077       -5.513271
