20
 generated by VMD
 C         -50.909599     -129.310745      -45.136082
 N         -50.945637     -130.070084      -44.216370
 H         -49.187080     -128.478821      -41.722530
 H         -50.727962     -128.795288      -46.114643
 C         -48.221321     -128.756409      -41.179886
 C         -47.850140     -130.100708      -40.945030
 C         -47.183033     -127.758438      -40.941742
 C         -46.445992     -130.493378      -41.531006
 C         -45.743717     -128.092102      -41.333256
 C         -45.334969     -129.563736      -40.887825
 H         -48.549583     -130.798996      -41.400421
 H         -47.776878     -130.263107      -39.815037
 H         -47.393322     -126.755539      -41.438957
 H         -47.241352     -127.531052      -39.932152
 H         -46.522045     -130.405334      -42.583717
 H         -46.247898     -131.510666      -41.265049
 H         -44.974182     -127.588936      -40.774483
 H         -45.523384     -128.114426      -42.366055
 H         -44.267345     -129.748383      -41.202728
 H         -45.509369     -129.635162      -39.842781
