20
 generated by VMD
 C         -62.878780     -172.155426      -55.249035
 N         -62.465012     -173.268661      -55.167736
 H         -61.554581     -171.459183      -58.800457
 H         -63.262932     -171.128143      -55.419205
 C         -62.385090     -170.708481      -58.799114
 C         -62.370163     -169.470367      -57.973991
 C         -63.725254     -171.344925      -58.890907
 C         -63.683315     -168.561768      -57.979034
 C         -64.923790     -170.386017      -59.071430
 C         -64.912804     -169.461731      -57.900249
 H         -61.602638     -168.867722      -58.295971
 H         -62.098221     -169.784912      -56.839306
 H         -63.837921     -172.058350      -59.791195
 H         -63.913387     -171.941269      -57.995712
 H         -63.650917     -168.054977      -58.894974
 H         -63.639408     -167.903625      -57.160538
 H         -65.829178     -170.938110      -59.135162
 H         -64.738434     -169.787521      -59.963867
 H         -65.825539     -168.884827      -58.208744
 H         -65.063850     -169.898941      -56.842743
