20
 generated by VMD
 C         -11.553012      -25.925900       -0.869462
 N         -11.390865      -25.000360       -0.283662
 H          -7.801850      -26.069019       -1.038597
 H          -9.059123      -25.588552       -2.185656
 C          -7.973405      -25.646809       -2.072184
 C          -7.393010      -26.479332       -3.202661
 C          -7.380201      -24.187908       -2.122957
 C          -7.541088      -25.778387       -4.544791
 C          -7.538651      -23.498941       -3.404945
 C          -6.946574      -24.307285       -4.526572
 H          -7.940234      -27.409210       -3.202138
 H          -6.345636      -26.531141       -3.030167
 H          -7.867788      -23.594511       -1.315180
 H          -6.281398      -24.229570       -1.939065
 H          -8.627027      -25.589024       -4.657835
 H          -7.148478      -26.387774       -5.364059
 H          -7.226097      -22.435867       -3.320944
 H          -8.625049      -23.406275       -3.636378
 H          -6.968649      -23.763165       -5.497831
 H          -5.852774      -24.321569       -4.333896
