20
 generated by VMD
 C         -23.218132      -53.692921      -14.610825
 N         -24.199539      -53.339333      -15.067770
 H         -20.471926      -55.049126      -15.314083
 H         -22.160442      -53.980766      -14.379641
 C         -19.707993      -55.395947      -14.474952
 C         -19.245192      -54.281387      -13.625112
 C         -18.632805      -56.419651      -14.951638
 C         -18.201361      -54.708466      -12.612775
 C         -17.918001      -57.012814      -13.727669
 C         -17.260935      -55.872818      -12.977460
 H         -20.109875      -53.747841      -13.143213
 H         -18.884315      -53.470867      -14.270340
 H         -19.161001      -57.226707      -15.481876
 H         -18.005157      -55.909187      -15.612485
 H         -18.840944      -54.983059      -11.722815
 H         -17.591583      -53.922119      -12.177273
 H         -17.102552      -57.709587      -13.956318
 H         -18.637915      -57.548683      -13.072657
 H         -16.794962      -56.232990      -12.055221
 H         -16.438993      -55.531544      -13.547900
