20
 generated by VMD
 C         -49.892323     -127.748550      -40.544025
 N         -50.837837     -127.964439      -41.202465
 H         -47.550900     -127.573135      -41.469971
 H         -49.011745     -127.576820      -39.941227
 C         -46.891827     -126.826256      -41.095482
 C         -45.725525     -127.312454      -40.183239
 C         -46.813786     -125.429001      -41.402897
 C         -44.310204     -126.915375      -40.653397
 C         -45.503952     -124.842964      -41.906567
 C         -44.407734     -125.308655      -40.845879
 H         -45.832569     -128.412872      -40.099186
 H         -46.042248     -126.954994      -39.254936
 H         -47.476009     -125.244492      -42.160347
 H         -46.987331     -124.897858      -40.368435
 H         -43.971203     -127.296921      -41.624283
 H         -43.612503     -127.081039      -39.842777
 H         -45.404377     -123.742020      -41.892139
 H         -45.297012     -125.112503      -42.934177
 H         -43.336014     -124.954247      -41.081348
 H         -44.575325     -124.824730      -39.847816
