20
 generated by VMD
 C         -12.391433      -27.589310       -4.617579
 N         -13.125780      -28.086233       -5.272903
 H         -10.959523      -30.537796       -2.695062
 H         -10.908298      -29.035299       -3.826449
 C         -10.297198      -29.832354       -3.354461
 C          -9.604794      -30.503695       -4.556781
 C          -9.312833      -29.151342       -2.478566
 C          -8.706084      -29.489294       -5.294353
 C          -8.380346      -28.239056       -3.173844
 C          -7.658903      -28.874298       -4.410466
 H         -10.338808      -31.088017       -5.240803
 H          -8.937175      -31.292492       -4.209888
 H          -9.787733      -28.683352       -1.658316
 H          -8.767659      -29.968866       -1.992663
 H          -9.309201      -28.670591       -5.772721
 H          -8.216278      -30.031321       -6.139291
 H          -7.586570      -27.767176       -2.538520
 H          -8.848583      -27.361696       -3.577479
 H          -7.193555      -28.118143       -4.986878
 H          -6.990896      -29.650055       -3.971965
