20
 generated by VMD
 C         -46.793392     -125.085327      -38.304485
 N         -47.845119     -125.111267      -37.791161
 H         -44.795902     -122.214508      -37.612179
 H         -45.783314     -125.346214      -38.711617
 C         -44.658100     -122.176277      -38.712250
 C         -43.507103     -122.706841      -39.565575
 C         -45.770203     -121.378410      -39.436672
 C         -43.962303     -123.367790      -40.813866
 C         -46.139664     -122.088531      -40.725651
 C         -44.951832     -122.505760      -41.702648
 H         -42.780544     -123.343979      -39.150837
 H         -42.945133     -121.729034      -39.771984
 H         -46.700710     -121.384338      -38.810772
 H         -45.467426     -120.390320      -39.594601
 H         -44.632721     -124.123344      -40.592937
 H         -43.097122     -123.697914      -41.387135
 H         -46.916328     -121.452225      -41.282681
 H         -46.617275     -123.190430      -40.528999
 H         -45.202400     -123.025719      -42.620571
 H         -44.361050     -121.586357      -41.925137
