20
 generated by VMD
 C         -59.007385     -159.501740      -57.267941
 N         -58.275631     -160.163498      -57.939556
 H         -58.849110     -161.615570      -54.978523
 H         -59.727802     -158.952896      -56.668869
 C         -59.475208     -161.554428      -54.091099
 C         -58.812466     -162.050522      -52.797882
 C         -60.845936     -162.207794      -54.493500
 C         -59.931335     -161.930710      -51.705185
 C         -61.875015     -161.893753      -53.355309
 C         -61.409950     -162.431839      -52.021172
 H         -58.056736     -161.259399      -52.576775
 H         -58.395924     -163.013290      -52.762779
 H         -61.172344     -161.971390      -55.563354
 H         -60.797546     -163.320068      -54.524574
 H         -60.025139     -160.962723      -51.418152
 H         -59.661442     -162.626343      -50.865902
 H         -62.863148     -162.263824      -53.648033
 H         -61.948593     -160.808929      -53.403023
 H         -62.100815     -162.166138      -51.101837
 H         -61.339462     -163.523605      -52.126579
