20
 generated by VMD
 C         -10.477737      -36.193260       -7.408912
 N          -9.850090      -37.007648       -7.907139
 H         -13.225229      -38.441383       -7.917304
 H         -14.443746      -38.883987       -6.669469
 C         -14.112140      -39.164127       -7.729643
 C         -13.597874      -40.574345       -7.766564
 C         -15.183137      -38.894859       -8.800129
 C         -14.736698      -41.516960       -7.469794
 C         -16.289797      -39.933975       -8.745750
 C         -15.804512      -41.331425       -8.551794
 H         -12.762487      -40.660229       -7.044037
 H         -13.234734      -40.894421       -8.752009
 H         -15.561996      -37.883034       -8.740186
 H         -14.731167      -39.011959       -9.758517
 H         -15.122723      -41.397381       -6.483695
 H         -14.341057      -42.537739       -7.488581
 H         -16.796375      -39.913822       -9.721620
 H         -17.003290      -39.647156       -7.937283
 H         -16.693712      -41.960636       -8.292857
 H         -15.399225      -41.718868       -9.487995
