20
 generated by VMD
 C         -40.891560     -104.179802      -36.528774
 N         -41.698895     -105.009033      -36.317780
 H         -38.900963     -104.693474      -33.568073
 H         -40.338490     -103.306931      -36.753395
 C         -38.617954     -105.688675      -33.075302
 C         -37.316265     -105.780945      -32.392963
 C         -39.427402     -106.867630      -33.431629
 C         -37.317471     -106.732117      -31.153898
 C         -39.527954     -107.679794      -32.223343
 C         -38.120556     -107.963005      -31.578487
 H         -36.984177     -104.776428      -31.994022
 H         -36.485977     -106.184647      -33.043655
 H         -40.420437     -106.622108      -33.815361
 H         -38.778736     -107.400520      -34.177200
 H         -37.732162     -106.296486      -30.227537
 H         -36.258339     -106.865829      -31.083494
 H         -39.987103     -108.555000      -32.549244
 H         -40.263603     -107.188789      -31.562075
 H         -38.302807     -108.688889      -30.689411
 H         -37.523872     -108.459335      -32.290451
