20
 generated by VMD
 C         -28.142475      -87.905205      -26.557016
 N         -28.262804      -86.885719      -26.064400
 H         -31.295067      -89.412880      -25.936686
 H         -28.197060      -88.841263      -26.943005
 C         -32.175697      -88.843246      -26.173445
 C         -33.145477      -88.737518      -25.137331
 C         -32.667320      -88.835487      -27.619230
 C         -34.423367      -87.887367      -25.363029
 C         -33.759647      -87.640366      -27.808619
 C         -34.867535      -87.796516      -26.831179
 H         -32.606739      -88.338699      -24.236095
 H         -33.450459      -89.649689      -24.712128
 H         -31.742483      -88.727402      -28.307940
 H         -33.142853      -89.779335      -27.958982
 H         -34.234257      -86.859734      -25.143862
 H         -35.323711      -88.247231      -24.784559
 H         -34.023129      -87.696411      -28.819990
 H         -33.298412      -86.651138      -27.574167
 H         -35.511696      -86.910599      -27.047430
 H         -35.512501      -88.699753      -27.142395
