20
 generated by VMD
 C          -9.176475      -23.933390        2.218827
 N          -8.871222      -24.982214        2.467546
 H          -7.734558      -23.367470       -0.985330
 H          -8.944594      -22.748293       -1.871366
 C          -7.945383      -23.020645       -1.978400
 C          -7.625608      -24.105682       -2.945608
 C          -7.024210      -21.811039       -2.149921
 C          -7.551432      -23.698481       -4.414944
 C          -6.975036      -21.391052       -3.592629
 C          -6.556344      -22.543949       -4.511679
 H          -8.454826      -24.835836       -2.996809
 H          -6.661423      -24.583977       -2.686357
 H          -7.487740      -20.985161       -1.609148
 H          -6.031816      -21.916571       -1.685826
 H          -8.572557      -23.440619       -4.669436
 H          -7.078884      -24.560019       -4.946159
 H          -6.238799      -20.606058       -3.635554
 H          -7.919973      -20.988266       -3.994639
 H          -6.492175      -22.131666       -5.534973
 H          -5.478420      -22.919588       -4.328575
