20
 generated by VMD
 C         -30.963020      -77.810486      -25.346289
 N         -31.859362      -77.121971      -25.394142
 H         -29.219460      -76.841995      -22.307034
 H         -30.183939      -78.530540      -25.219803
 C         -28.587242      -77.773796      -22.254213
 C         -27.455778      -77.955910      -23.204399
 C         -29.118883      -78.992851      -21.548258
 C         -26.349457      -78.836914      -22.590082
 C         -27.997250      -79.768867      -20.787580
 C         -26.929976      -80.196938      -21.892986
 H         -27.046486      -76.976143      -23.605139
 H         -27.882109      -78.369316      -24.183603
 H         -29.754608      -78.626465      -20.740602
 H         -29.725700      -79.566498      -22.277884
 H         -25.898994      -78.147629      -21.846346
 H         -25.649380      -79.243240      -23.304871
 H         -28.342476      -80.821297      -20.364759
 H         -27.565180      -79.217216      -19.925190
 H         -26.038364      -80.716766      -21.481712
 H         -27.385435      -80.677025      -22.711355
