20
 generated by VMD
 C         -78.502235     -209.753632      -77.347954
 N         -79.068115     -209.035263      -76.583092
 H         -78.233917     -210.408661      -73.659340
 H         -77.938728     -210.321747      -78.153709
 C         -78.534004     -211.115128      -72.805130
 C         -77.413879     -211.454361      -71.788483
 C         -79.710114     -211.959305      -72.994003
 C         -77.942146     -211.893082      -70.422981
 C         -80.292824     -212.518173      -71.713272
 C         -79.175346     -212.961975      -70.674835
 H         -76.738373     -210.633423      -71.752617
 H         -76.916420     -212.371338      -72.057098
 H         -80.584587     -211.544296      -73.575134
 H         -79.436798     -212.799774      -73.608200
 H         -78.191353     -210.955887      -70.003593
 H         -77.209991     -212.351151      -69.760094
 H         -80.963257     -213.360138      -71.901268
 H         -80.694984     -211.608978      -71.174812
 H         -79.720306     -213.184448      -69.777939
 H         -78.627731     -213.850464      -71.076050
