20
 generated by VMD
 C          -1.684935       -8.580162        0.045315
 N          -2.375099       -7.784414        0.351578
 H          -3.323910       -9.232903        2.436442
 H          -1.951432      -10.266285        2.437694
 C          -2.974865      -10.256337        2.799087
 C          -3.851867      -11.426620        2.214329
 C          -3.016789      -10.300736        4.325864
 C          -3.508808      -12.851392        2.753577
 C          -2.731990      -11.696509        4.933040
 C          -3.551469      -12.802674        4.236302
 H          -3.876833      -11.443225        1.129474
 H          -4.894087      -11.160838        2.405830
 H          -2.442054       -9.459991        4.689549
 H          -4.049016      -10.050983        4.654059
 H          -2.576180      -13.084232        2.311314
 H          -4.230394      -13.479088        2.263579
 H          -2.940302      -11.722744        6.020990
 H          -1.639757      -11.914953        4.759564
 H          -3.267985      -13.764407        4.674078
 H          -4.582020      -12.660413        4.630692
