20
 generated by VMD
 C         -17.243088      -48.046501       -7.022277
 N         -16.738007      -47.062752       -6.868429
 H         -16.658638      -48.606918      -10.406919
 H         -15.591019      -48.565403      -11.875622
 C         -16.372002      -48.042370      -11.316012
 C         -15.845211      -46.641796      -10.878010
 C         -17.593214      -47.884232      -12.219057
 C         -15.675346      -45.669800      -12.085849
 C         -17.205359      -46.977520      -13.380999
 C         -16.869003      -45.535244      -13.053955
 H         -14.899769      -46.750290      -10.273737
 H         -16.519131      -46.182953      -10.123985
 H         -17.976105      -48.902374      -12.571111
 H         -18.504141      -47.459862      -11.703290
 H         -14.761230      -45.875576      -12.657670
 H         -15.541002      -44.654057      -11.688992
 H         -17.962566      -47.122684      -14.076311
 H         -16.244312      -47.330372      -13.795833
 H         -16.558619      -44.985538      -13.941439
 H         -17.646431      -45.028130      -12.584282
