20
 generated by VMD
 C          -4.525150      -20.980177        2.408936
 N          -5.044577      -20.040531        2.724149
 H          -5.192816      -19.092920       -0.231490
 H          -5.975437      -20.673225       -0.290381
 C          -5.937645      -19.692369       -0.783238
 C          -5.581123      -19.789234       -2.285701
 C          -7.221251      -18.909744       -0.641666
 C          -6.694739      -20.575775       -2.932749
 C          -8.346670      -19.711222       -1.175408
 C          -8.126480      -20.076578       -2.617636
 H          -4.582443      -20.263897       -2.443808
 H          -5.426172      -18.755011       -2.764446
 H          -7.418907      -18.560677        0.311822
 H          -7.161473      -17.966915       -1.171352
 H          -6.642175      -21.678133       -2.664915
 H          -6.536598      -20.564756       -4.023167
 H          -9.236146      -19.116192       -0.992590
 H          -8.411365      -20.631920       -0.526518
 H          -8.835460      -20.921009       -2.889914
 H          -8.414951      -19.307039       -3.365432
