20
 generated by VMD
 C         -59.950169     -152.912537      -51.091633
 N         -60.742813     -152.388382      -51.743313
 H         -56.960686     -153.171326      -49.179173
 H         -59.225800     -153.354645      -50.422138
 C         -56.214634     -152.688477      -49.806847
 C         -54.700489     -152.917725      -49.515274
 C         -56.626968     -151.286026      -50.164120
 C         -53.776066     -152.546478      -50.629166
 C         -55.577175     -150.809433      -51.204235
 C         -54.003826     -151.035751      -50.835266
 H         -54.388241     -153.866318      -49.218700
 H         -54.523308     -152.214172      -48.709766
 H         -57.708553     -151.084198      -50.477345
 H         -56.491867     -150.686050      -49.235161
 H         -54.103970     -153.180984      -51.494076
 H         -52.746037     -152.732224      -50.416740
 H         -55.598469     -149.792603      -51.419907
 H         -55.702461     -151.322098      -52.211433
 H         -53.428074     -150.756866      -51.681786
 H         -53.663403     -150.465179      -49.917774
