20
 generated by VMD
 C         -70.456573     -181.208069      -63.911179
 N         -70.833015     -182.187897      -63.347958
 H         -68.181404     -181.323059      -61.008602
 H         -70.088707     -180.318954      -64.442360
 C         -67.176682     -180.795670      -60.803860
 C         -65.967987     -181.667709      -60.470295
 C         -67.404694     -179.326202      -60.487598
 C         -64.744308     -180.891800      -60.741295
 C         -66.090843     -178.565552      -60.885429
 C         -64.833542     -179.342087      -60.305412
 H         -65.871407     -182.668884      -61.039906
 H         -66.022362     -181.816635      -59.359631
 H         -68.218750     -178.823029      -61.120422
 H         -67.643120     -179.213135      -59.424118
 H         -64.281639     -180.963989      -61.709961
 H         -63.946148     -181.385406      -60.158653
 H         -66.094994     -177.560684      -60.385872
 H         -66.083046     -178.479507      -61.974586
 H         -63.850544     -178.797760      -60.511669
 H         -64.901154     -179.194916      -59.267395
