20
 generated by VMD
 C         -50.859100     -129.982147      -44.918201
 N         -51.632553     -129.238022      -45.327404
 H         -48.619728     -129.787750      -43.087070
 H         -49.951485     -130.570755      -44.726795
 C         -48.071182     -129.842682      -42.238010
 C         -47.966057     -131.208420      -41.586044
 C         -47.450859     -128.589081      -41.623146
 C         -46.529942     -131.401031      -41.117962
 C         -46.111042     -128.925735      -41.118385
 C         -46.007076     -130.243118      -40.326859
 H         -48.352383     -132.102905      -42.276409
 H         -48.564240     -131.164627      -40.728329
 H         -47.562046     -127.869659      -42.360199
 H         -48.202450     -128.155167      -40.863289
 H         -45.946262     -131.403671      -42.029163
 H         -46.467899     -132.372528      -40.630863
 H         -45.786179     -127.991974      -40.574936
 H         -45.431541     -128.987000      -41.973305
 H         -44.908920     -130.312515      -40.195274
 H         -46.419151     -130.078720      -39.351063
