20
 generated by VMD
 C         -69.754456     -183.242050      -65.243011
 N         -69.865944     -182.376175      -66.010887
 H         -67.574570     -184.931961      -62.859024
 H         -69.621902     -183.983948      -64.498398
 C         -67.944283     -184.135910      -62.226707
 C         -67.989349     -184.396835      -60.763073
 C         -67.826248     -182.639984      -62.556759
 C         -67.085556     -183.441284      -59.925850
 C         -67.040794     -181.779449      -61.652756
 C         -67.501923     -182.059296      -60.298126
 H         -67.509575     -185.369324      -60.540619
 H         -69.031548     -184.252060      -60.344715
 H         -67.618896     -182.670624      -63.678825
 H         -68.807556     -182.158981      -62.582344
 H         -66.067360     -183.553436      -60.238983
 H         -67.065704     -183.723038      -58.870708
 H         -67.253899     -180.710052      -61.896969
 H         -65.889618     -181.783066      -61.735783
 H         -66.872871     -181.342346      -59.711781
 H         -68.559982     -181.874435      -60.193802
