20
 generated by VMD
 C         -22.567434      -55.574486      -16.416479
 N         -23.105238      -54.555550      -16.416477
 H         -19.728683      -55.438007      -15.489406
 H         -21.770241      -56.308517      -16.605410
 C         -19.832508      -56.445332      -15.021259
 C         -20.608015      -56.651955      -13.721247
 C         -18.622797      -57.533680      -15.245063
 C         -21.008284      -58.159218      -13.431273
 C         -18.932211      -58.965618      -14.646227
 C         -19.743065      -59.029457      -13.363363
 H         -21.504837      -55.942169      -13.716257
 H         -20.003178      -56.251678      -12.863627
 H         -18.344076      -57.741245      -16.333811
 H         -17.647715      -57.218895      -14.879939
 H         -21.644773      -58.575161      -14.296148
 H         -21.625776      -58.146877      -12.535314
 H         -18.010145      -59.631721      -14.583717
 H         -19.575443      -59.393978      -15.405004
 H         -19.952524      -60.097809      -13.138544
 H         -19.118809      -58.690151      -12.583636
