20
 generated by VMD
 C          -1.492054      -17.163118        2.063683
 N          -1.583456      -17.331499        3.165879
 H          -5.244563      -17.043449        0.816684
 H          -5.081322      -18.427313       -0.345152
 C          -5.722135      -17.692354        0.063579
 C          -6.408917      -16.736269       -0.954307
 C          -6.921011      -18.543032        0.675216
 C          -7.047888      -17.555542       -2.173743
 C          -7.579324      -19.323093       -0.445685
 C          -8.075204      -18.518303       -1.591290
 H          -5.692935      -16.072145       -1.384585
 H          -7.252094      -16.106884       -0.553627
 H          -6.422445      -19.252804        1.458704
 H          -7.613434      -17.783072        1.139714
 H          -6.247754      -18.070330       -2.612851
 H          -7.568769      -16.845821       -2.839554
 H          -8.415873      -19.838009        0.024227
 H          -6.827637      -20.070322       -0.797832
 H          -8.527690      -19.172415       -2.371858
 H          -8.881560      -17.916016       -1.180440
