20
 generated by VMD
 C         -40.460396     -104.389198      -36.272121
 N         -39.572701     -104.939125      -36.738110
 H         -40.565170     -107.270119      -34.667145
 H         -41.444878     -103.975105      -36.012741
 C         -39.821018     -107.708786      -33.998558
 C         -38.710300     -106.790184      -33.527878
 C         -39.959038     -109.139534      -33.545170
 C         -38.540283     -106.921005      -32.035534
 C         -39.933918     -109.152733      -32.029018
 C         -38.663200     -108.480324      -31.512518
 H         -39.114990     -105.703850      -33.645115
 H         -37.761520     -106.848503      -34.131454
 H         -40.994568     -109.590981      -33.662579
 H         -39.232376     -109.806030      -34.054104
 H         -39.271706     -106.278885      -31.481466
 H         -37.490677     -106.533447      -31.809761
 H         -39.958397     -110.232910      -31.712708
 H         -40.750099     -108.718178      -31.457495
 H         -38.393951     -108.429848      -30.366995
 H         -37.831623     -108.968025      -31.958717
