20
 generated by VMD
 C         -30.572559      -79.696533      -26.049236
 N         -30.900459      -78.583015      -26.179308
 H         -28.434877      -82.215050      -25.650137
 H         -30.236361      -80.771202      -25.751814
 C         -28.965645      -82.164101      -24.609055
 C         -28.027117      -81.594299      -23.510221
 C         -30.026600      -83.165390      -24.288120
 C         -28.771429      -81.281509      -22.239071
 C         -30.804358      -82.577690      -23.055855
 C         -29.759386      -82.422531      -21.911646
 H         -27.470671      -80.681404      -23.747540
 H         -27.193989      -82.339264      -23.246504
 H         -30.764874      -83.257904      -25.071644
 H         -29.598888      -84.110031      -24.082649
 H         -29.536583      -80.431458      -22.253954
 H         -28.069458      -81.115936      -21.447769
 H         -31.504436      -83.280754      -22.770876
 H         -31.320480      -81.621162      -23.223961
 H         -30.224007      -82.128853      -20.992840
 H         -29.180971      -83.350220      -21.937477
