20
 generated by VMD
 C         -27.880924      -81.720360      -26.631630
 N         -28.186270      -82.206421      -27.647388
 H         -30.430174      -83.725555      -26.126501
 H         -27.358452      -81.168434      -25.747953
 C         -31.081926      -84.404060      -25.478058
 C         -30.715475      -84.177895      -23.960588
 C         -31.792444      -85.726692      -25.864826
 C         -31.742609      -84.841469      -23.041599
 C         -32.850086      -86.080666      -24.838758
 C         -32.378456      -86.136078      -23.392078
 H         -30.746704      -83.121841      -23.654943
 H         -29.725975      -84.654381      -23.697731
 H         -32.382824      -85.723480      -26.733065
 H         -30.963268      -86.404228      -26.020794
 H         -32.403385      -84.062302      -22.845936
 H         -31.226084      -84.905991      -22.032940
 H         -33.267754      -87.099060      -24.964121
 H         -33.670074      -85.480713      -24.956217
 H         -33.161072      -86.349518      -22.689688
 H         -31.663404      -86.991257      -23.255697
