20
 generated by VMD
 C         -48.047268     -140.046860      -45.938797
 N         -46.897919     -139.794312      -45.697826
 H         -51.115406     -138.602661      -45.238949
 H         -49.025372     -140.452820      -46.107933
 C         -51.961842     -139.225113      -45.564754
 C         -52.109104     -139.440994      -47.065239
 C         -53.160145     -139.160629      -44.696709
 C         -53.156269     -140.514908      -47.403744
 C         -54.203194     -140.288208      -45.038345
 C         -54.492790     -140.292038      -46.550705
 H         -51.165382     -139.676941      -47.496780
 H         -52.285500     -138.435867      -47.487038
 H         -53.005573     -139.218033      -43.623581
 H         -53.389122     -138.127914      -44.769268
 H         -52.629066     -141.458755      -47.044384
 H         -53.328945     -140.615463      -48.549919
 H         -55.139198     -140.154800      -44.631073
 H         -53.819572     -141.273712      -44.785709
 H         -55.135193     -141.150696      -46.971943
 H         -54.971470     -139.343048      -46.843136
