20
 generated by VMD
 C         -29.979118      -79.303642      -25.937572
 N         -30.901117      -78.624001      -26.034101
 H         -29.099516      -82.701347      -25.732616
 H         -29.175943      -79.861282      -25.581663
 C         -28.922348      -82.919312      -24.652918
 C         -28.296886      -81.947197      -23.736954
 C         -29.874100      -83.960785      -24.120712
 C         -29.292521      -81.276627      -22.777109
 C         -30.981861      -83.228790      -23.231367
 C         -30.271011      -82.316933      -22.112703
 H         -27.808168      -81.228294      -24.328661
 H         -27.522926      -82.376137      -23.073280
 H         -30.272743      -84.609512      -24.931242
 H         -29.335398      -84.642670      -23.485462
 H         -29.976105      -80.452507      -23.241537
 H         -28.746758      -80.728920      -22.011232
 H         -31.631453      -83.996140      -22.806299
 H         -31.663616      -82.603424      -23.845192
 H         -30.981033      -81.904556      -21.373383
 H         -29.539297      -82.849564      -21.435028
