20
 generated by VMD
 C         -59.429626     -158.212311      -56.881855
 N         -58.578606     -158.570099      -57.530334
 H         -60.401096     -158.123383      -53.508240
 H         -60.272415     -157.921112      -56.301495
 C         -60.046520     -159.025085      -53.048489
 C         -58.568676     -159.001389      -52.452507
 C         -60.647568     -160.394333      -53.230442
 C         -58.282429     -160.079590      -51.400055
 C         -60.297161     -161.324310      -52.068027
 C         -58.779884     -161.460846      -51.863380
 H         -58.260735     -157.976608      -52.108089
 H         -57.853477     -159.066101      -53.260067
 H         -61.750820     -160.302200      -53.272991
 H         -60.334198     -160.838943      -54.168530
 H         -58.631283     -159.671890      -50.411388
 H         -57.290562     -160.247269      -51.232697
 H         -60.544861     -162.406464      -52.239388
 H         -60.906464     -161.033401      -51.219761
 H         -58.627865     -162.297653      -51.227081
 H         -58.394794     -161.634338      -52.805874
