20
 generated by VMD
 C         -60.923691     -155.121582      -52.973286
 N         -60.911098     -154.219376      -52.187904
 H         -57.933681     -154.378998      -52.728786
 H         -60.815994     -155.931747      -53.726704
 C         -57.138794     -154.165634      -52.015369
 C         -57.360981     -154.126648      -50.539799
 C         -55.803482     -153.717621      -52.505444
 C         -56.264793     -154.582275      -49.631050
 C         -54.684635     -154.132812      -51.584934
 C         -55.037178     -153.776779      -50.128563
 H         -58.362934     -154.653580      -50.359962
 H         -57.651630     -153.069687      -50.242901
 H         -55.683201     -154.165176      -53.528584
 H         -55.769196     -152.642929      -52.687492
 H         -56.006981     -155.632782      -49.796597
 H         -56.254875     -154.356949      -48.575249
 H         -53.735462     -153.506378      -51.742184
 H         -54.500820     -155.163315      -51.743378
 H         -54.198757     -153.964951      -49.415657
 H         -54.975071     -152.703323      -50.032425
