20
 generated by VMD
 C         -60.221199     -170.704346      -55.209808
 N         -59.229855     -171.267258      -55.239357
 H         -63.373074     -170.718719      -57.103020
 H         -61.212288     -170.241486      -55.171410
 C         -63.425362     -169.627335      -56.846222
 C         -62.422550     -168.781784      -57.579662
 C         -64.581963     -168.901825      -56.507999
 C         -62.946716     -167.927094      -58.691257
 C         -65.276039     -168.054718      -57.588612
 C         -64.280930     -167.167725      -58.366943
 H         -61.621391     -169.511414      -57.853977
 H         -61.958366     -167.965836      -56.882790
 H         -65.113556     -169.660995      -56.096169
 H         -64.320335     -168.290710      -55.651711
 H         -62.893044     -168.485840      -59.658173
 H         -62.224110     -167.111252      -58.850349
 H         -66.031624     -167.397354      -57.020054
 H         -65.905312     -168.631241      -58.311481
 H         -64.748543     -166.832077      -59.343784
 H         -63.989307     -166.260956      -57.792786
