20
 generated by VMD
 C         -50.540562     -129.180145      -43.920109
 N         -50.910709     -130.162033      -44.442226
 H         -49.128853     -127.982971      -40.762642
 H         -50.081387     -128.300735      -43.446308
 C         -48.188519     -128.368713      -41.149792
 C         -47.784012     -129.851288      -41.061443
 C         -47.028912     -127.346260      -40.879951
 C         -46.418484     -130.080475      -41.595245
 C         -45.613297     -127.841667      -41.388687
 C         -45.303951     -129.218140      -40.958218
 H         -48.448101     -130.464127      -41.562378
 H         -47.826466     -129.954803      -39.908100
 H         -47.365044     -126.328537      -41.411266
 H         -47.114868     -127.072479      -39.867085
 H         -46.460133     -129.842590      -42.637039
 H         -46.114689     -131.127716      -41.501984
 H         -44.923878     -127.073380      -40.991520
 H         -45.739075     -127.644012      -42.511372
 H         -44.344940     -129.360291      -41.495216
 H         -45.228287     -129.401337      -39.873299
