20
 generated by VMD
 C         -57.921951     -150.622040      -48.754532
 N         -58.007584     -151.813507      -48.637882
 H         -55.408012     -149.711319      -47.644321
 H         -57.985931     -149.559692      -48.933655
 C         -55.045029     -149.303864      -48.634354
 C         -54.346283     -150.184677      -49.566719
 C         -55.070789     -147.793686      -48.904842
 C         -54.116352     -149.803314      -50.940922
 C         -55.038876     -147.591614      -50.409935
 C         -53.907551     -148.366379      -50.962696
 H         -54.850044     -151.138138      -49.571384
 H         -53.385685     -150.354156      -49.140362
 H         -55.933250     -147.284164      -48.396843
 H         -54.220200     -147.377991      -48.352764
 H         -55.080490     -149.940735      -51.442127
 H         -53.429859     -150.410233      -51.500225
 H         -54.697746     -146.477676      -50.515480
 H         -55.948830     -147.890198      -50.904064
 H         -53.845860     -148.129578      -52.017124
 H         -52.953873     -148.155960      -50.475342
