20
 generated by VMD
 C         -13.035069      -28.694677       -5.831189
 N         -12.728243      -27.724545       -5.355231
 H         -11.333558      -31.257370       -3.419371
 H         -11.212825      -29.671375       -4.377326
 C         -10.706521      -30.484224       -3.833288
 C          -9.791302      -31.167440       -4.868687
 C          -9.960739      -29.739960       -2.676059
 C          -8.699708      -30.257969       -5.328733
 C          -8.652860      -29.024990       -3.111630
 C          -7.849450      -29.725008       -4.182017
 H         -10.420103      -31.387161       -5.772240
 H          -9.319513      -32.025742       -4.442910
 H         -10.570403      -29.037939       -2.097293
 H          -9.581868      -30.527744       -1.945006
 H          -9.222403      -29.429399       -5.774256
 H          -8.029470      -30.800055       -5.985684
 H          -8.025755      -28.846958       -2.218332
 H          -9.026962      -28.072903       -3.519244
 H          -7.096952      -29.064484       -4.580066
 H          -7.324104      -30.642080       -3.855104
