20
 generated by VMD
 C         -22.671829      -55.193977      -15.233551
 N         -23.019026      -55.181999      -16.292959
 H         -19.424927      -54.385864      -15.414015
 H         -22.613937      -55.611141      -14.160826
 C         -19.208529      -55.321228      -14.781453
 C         -19.005316      -55.194057      -13.369603
 C         -19.585293      -56.594082      -15.469830
 C         -19.511478      -56.332108      -12.545765
 C         -19.397497      -57.914066      -14.658272
 C         -19.085899      -57.653725      -13.091439
 H         -19.558838      -54.283443      -13.094068
 H         -17.922255      -55.122837      -13.110407
 H         -20.638769      -56.518658      -15.721161
 H         -18.891148      -56.704788      -16.361666
 H         -20.596777      -56.282703      -12.338514
 H         -19.033464      -56.243771      -11.576193
 H         -18.570570      -58.544647      -15.091528
 H         -20.253412      -58.547070      -14.758240
 H         -19.456402      -58.496849      -12.524493
 H         -18.008865      -57.757828      -13.047638
