20
 generated by VMD
 C         -12.154696      -31.852402       -8.667984
 N         -12.875641      -31.699656       -9.530674
 H         -10.423522      -34.571972       -7.013332
 H         -11.277169      -33.736271       -5.704590
 C         -11.092810      -34.677269       -6.200895
 C         -10.450364      -35.627697       -5.168083
 C         -12.417961      -35.267963       -6.762088
 C         -11.448844      -36.170017       -4.088222
 C         -13.383221      -35.636055       -5.665346
 C         -12.744734      -36.706467       -4.758022
 H          -9.594978      -35.100681       -4.681674
 H         -10.103098      -36.502308       -5.705686
 H         -12.844819      -34.506630       -7.403518
 H         -12.069457      -36.139400       -7.354704
 H         -11.631068      -35.384861       -3.386108
 H         -10.995433      -37.091133       -3.653615
 H         -14.250128      -36.095154       -6.226084
 H         -13.676340      -34.789581       -5.085570
 H         -13.518145      -36.997074       -3.970996
 H         -12.511972      -37.667992       -5.287810
