20
 generated by VMD
 C         -41.468422     -119.307091      -34.604992
 N         -40.784164     -119.623291      -35.516411
 H         -43.338943     -117.807045      -36.458710
 H         -41.949715     -118.833786      -33.679546
 C         -43.821789     -117.918243      -37.406105
 C         -42.997688     -118.040665      -38.602680
 C         -45.135635     -117.245872      -37.589981
 C         -43.725689     -118.523537      -39.918114
 C         -45.851215     -117.855186      -38.839909
 C         -45.121365     -117.733459      -40.121002
 H         -42.264793     -118.800056      -38.509468
 H         -42.523441     -117.129173      -38.732250
 H         -45.709442     -117.341606      -36.712055
 H         -44.795044     -116.165146      -37.735584
 H         -43.918873     -119.603508      -39.912567
 H         -43.235909     -118.259010      -40.771580
 H         -46.797588     -117.172676      -38.998501
 H         -46.128948     -118.940956      -38.565826
 H         -45.687496     -118.220497      -40.909069
 H         -44.897778     -116.609947      -40.452103
