20
 generated by VMD
 C         -12.573031      -30.255974       -8.082201
 N         -13.200352      -30.464766       -7.184123
 H         -11.312816      -30.374575       -5.278027
 H         -10.500978      -30.916418       -3.684126
 C         -10.834893      -31.170179       -4.689025
 C          -9.578247      -31.684258       -5.349403
 C         -11.931066      -32.349567       -4.564572
 C          -9.092453      -32.942596       -4.707851
 C         -11.390644      -33.578907       -3.812770
 C         -10.116505      -34.041775       -4.473772
 H          -8.792728      -30.949516       -5.309924
 H          -9.713173      -31.919048       -6.440171
 H         -12.793559      -31.977404       -4.023312
 H         -12.223549      -32.638416       -5.578573
 H          -8.690169      -32.611053       -3.753698
 H          -8.224709      -33.292213       -5.268501
 H         -12.230886      -34.359432       -3.739906
 H         -11.149956      -33.306335       -2.807373
 H          -9.599829      -34.726013       -3.782724
 H         -10.371284      -34.454533       -5.410802
