20
 generated by VMD
 C         -23.219286      -53.842716      -14.791343
 N         -24.203051      -53.373768      -15.087517
 H         -20.631611      -54.958523      -15.025929
 H         -22.237740      -54.172821      -14.556191
 C         -19.637543      -55.295391      -14.604997
 C         -19.032827      -54.349579      -13.624363
 C         -18.877964      -56.512764      -14.917538
 C         -18.375885      -54.979980      -12.400224
 C         -17.963091      -56.982452      -13.774990
 C         -17.238823      -55.831970      -13.022162
 H         -19.787748      -53.630711      -13.450044
 H         -18.310545      -53.788948      -14.211688
 H         -19.634247      -57.290951      -15.248700
 H         -18.226881      -56.236458      -15.804033
 H         -19.083233      -55.597401      -11.842051
 H         -17.864796      -54.211014      -11.792102
 H         -17.146221      -57.686272      -14.090981
 H         -18.553431      -57.541828      -13.087675
 H         -16.609737      -56.228363      -12.216931
 H         -16.657059      -55.236782      -13.792434
