20
 generated by VMD
 C         -18.430635      -50.082470       -9.648597
 N         -19.432261      -50.520302       -9.462771
 H         -16.315989      -47.187233      -10.195851
 H         -17.504641      -48.483509      -10.288787
 C         -16.757433      -47.870144      -10.911380
 C         -15.647306      -48.745152      -11.517120
 C         -17.584476      -47.058048      -11.920101
 C         -16.381927      -49.698166      -12.456460
 C         -17.990816      -47.796410      -13.143139
 C         -16.913151      -48.821079      -13.592545
 H         -15.254082      -49.258148      -10.660748
 H         -14.812844      -48.242226      -12.026409
 H         -18.544426      -46.676796      -11.475247
 H         -17.000238      -46.129421      -12.173271
 H         -17.079721      -50.353889      -11.989597
 H         -15.673693      -50.384190      -12.926710
 H         -18.192940      -47.179245      -14.011174
 H         -18.972029      -48.323139      -12.868426
 H         -17.304758      -49.407398      -14.377878
 H         -16.095610      -48.267105      -13.972880
