20
 generated by VMD
 C         -62.554131     -174.356049      -54.885609
 N         -63.560894     -174.103607      -55.473835
 H         -62.363911     -172.324753      -58.275566
 H         -61.648006     -174.474640      -54.296211
 C         -63.227757     -171.706360      -58.480965
 C         -63.511234     -170.666748      -57.424702
 C         -64.218407     -172.091293      -59.544373
 C         -63.686760     -169.369705      -58.296703
 C         -64.581131     -170.736710      -60.222134
 C         -64.780426     -169.589767      -59.340366
 H         -62.610554     -170.459137      -56.674358
 H         -64.335724     -170.810242      -56.859112
 H         -63.780788     -172.687317      -60.268219
 H         -65.152046     -172.266953      -59.058479
 H         -62.689690     -169.025986      -58.697586
 H         -64.070389     -168.468994      -57.667194
 H         -65.507629     -170.886475      -60.758125
 H         -63.891388     -170.591248      -61.048470
 H         -64.939461     -168.666351      -59.899078
 H         -65.794151     -169.781494      -58.802994
