20
 generated by VMD
 C          -9.863358      -24.700335        0.495600
 N         -10.432331      -25.165924       -0.339100
 H          -6.540001      -24.419594       -0.863261
 H          -8.221385      -23.915434       -1.210926
 C          -7.225919      -24.133018       -1.620193
 C          -7.120055      -25.264357       -2.662323
 C          -6.677979      -22.899698       -2.254111
 C          -8.085481      -25.004286       -3.824578
 C          -7.681601      -22.562807       -3.430507
 C          -7.700683      -23.709532       -4.440107
 H          -7.266434      -26.225933       -2.196564
 H          -6.055567      -25.255941       -3.084620
 H          -6.666753      -22.095612       -1.481958
 H          -5.669655      -22.985117       -2.652261
 H          -9.121044      -25.016630       -3.510163
 H          -7.877222      -25.711245       -4.577450
 H          -7.338263      -21.612925       -3.875491
 H          -8.669649      -22.342487       -3.012125
 H          -8.480761      -23.528450       -5.246874
 H          -6.804397      -23.795547       -5.071741
