20
 generated by VMD
 C         -49.894894     -127.746353      -40.566814
 N         -50.858265     -127.976128      -41.212467
 H         -47.571236     -127.527588      -41.412689
 H         -49.073536     -127.563362      -39.855228
 C         -46.887966     -126.832687      -41.095715
 C         -45.714413     -127.324333      -40.164589
 C         -46.806137     -125.430763      -41.396393
 C         -44.307426     -126.916061      -40.664692
 C         -45.482113     -124.857483      -41.891190
 C         -44.413979     -125.324265      -40.860287
 H         -45.791607     -128.399643      -40.134670
 H         -46.089634     -126.932716      -39.166050
 H         -47.560585     -125.173393      -42.152245
 H         -47.066368     -124.935440      -40.444706
 H         -43.947144     -127.237343      -41.628925
 H         -43.646225     -127.096313      -39.830944
 H         -45.444870     -123.730209      -41.942841
 H         -45.367397     -125.126434      -42.906559
 H         -43.355209     -124.910477      -41.145527
 H         -44.566639     -124.849564      -39.868652
