20
 generated by VMD
 C         -51.065022     -130.014511      -44.948170
 N         -51.708931     -129.260345      -45.637074
 H         -48.509258     -129.587860      -43.282246
 H         -50.342484     -130.674438      -44.439793
 C         -47.946941     -129.949203      -42.339806
 C         -47.961636     -131.225967      -41.605175
 C         -47.509060     -128.764404      -41.582592
 C         -46.597519     -131.506622      -41.074806
 C         -46.111706     -128.991440      -41.081921
 C         -45.977623     -130.296814      -40.297184
 H         -48.352215     -132.077774      -42.146061
 H         -48.653351     -131.081131      -40.767776
 H         -47.417465     -127.838791      -42.169933
 H         -48.066036     -128.612961      -40.735420
 H         -45.823868     -131.733200      -41.822105
 H         -46.485500     -132.475754      -40.477661
 H         -45.789406     -128.219421      -40.320297
 H         -45.367413     -129.026688      -41.928116
 H         -44.919922     -130.605942      -40.215042
 H         -46.486156     -130.220871      -39.312237
