20
 generated by VMD
 C         -46.700264     -124.671227      -37.619427
 N         -46.916653     -124.590714      -36.498981
 H         -44.743946     -122.385994      -37.700218
 H         -46.604401     -124.975754      -38.606075
 C         -44.814137     -122.227112      -38.814964
 C         -43.469379     -122.255775      -39.609730
 C         -45.898006     -121.412628      -39.440647
 C         -43.649277     -122.536736      -41.112316
 C         -46.066082     -121.721031      -40.939156
 C         -44.749222     -121.520653      -41.644730
 H         -42.655380     -122.900826      -39.322380
 H         -43.118248     -121.291801      -39.459019
 H         -46.761177     -121.614426      -38.917530
 H         -45.644257     -120.344376      -39.254742
 H         -44.042431     -123.526390      -41.288673
 H         -42.636749     -122.192482      -41.506115
 H         -46.983692     -121.172539      -41.239201
 H         -46.427864     -122.867851      -40.984997
 H         -44.947590     -121.551949      -42.733635
 H         -44.421730     -120.503143      -41.492504
