20
 generated by VMD
 C         -43.265156     -121.159569      -35.557095
 N         -43.099232     -120.538414      -34.598766
 H         -44.581253     -122.000160      -38.913197
 H         -43.150654     -121.833572      -36.462219
 C         -44.506943     -120.881157      -39.168484
 C         -43.277950     -120.208870      -39.717731
 C         -45.480808     -120.023468      -38.503838
 C         -43.594261     -119.006630      -40.584309
 C         -45.951935     -118.864388      -39.367405
 C         -44.593792     -118.077576      -39.866493
 H         -42.698750     -120.948593      -40.224800
 H         -42.841434     -119.856369      -38.796997
 H         -46.211018     -120.712654      -38.105232
 H         -44.990089     -119.644234      -37.561382
 H         -43.856808     -119.316193      -41.598263
 H         -42.800686     -118.303520      -40.775387
 H         -46.614239     -118.149063      -38.862328
 H         -46.535931     -119.231384      -40.368118
 H         -45.039085     -117.245659      -40.443989
 H         -44.019524     -117.710907      -38.941425
