20
 generated by VMD
 C         -60.259686     -156.331070      -56.050625
 N         -60.792458     -155.294708      -55.783352
 H         -59.727993     -157.833191      -53.124371
 H         -59.742794     -157.310028      -56.072670
 C         -58.911728     -157.875351      -52.493168
 C         -58.032047     -156.634460      -52.381035
 C         -58.246262     -159.208954      -51.913170
 C         -57.232208     -156.426086      -51.137775
 C         -57.435066     -158.899826      -50.566589
 C         -56.477779     -157.670639      -50.686783
 H         -58.812168     -155.919373      -52.496635
 H         -57.273533     -156.825287      -53.141159
 H         -59.032593     -159.922501      -51.781059
 H         -57.477577     -159.599350      -52.622295
 H         -57.896736     -156.114792      -50.362831
 H         -56.534069     -155.606934      -51.210094
 H         -56.881229     -159.716843      -50.204708
 H         -58.194954     -158.872910      -49.867561
 H         -55.866886     -157.443604      -49.819225
 H         -55.674370     -157.870651      -51.447556
