20
 generated by VMD
 C         -42.721649     -120.686150      -35.241283
 N         -42.589252     -121.086151      -34.176224
 H         -44.022381     -120.954491      -38.238434
 H         -43.028011     -120.293671      -36.147888
 C         -44.000725     -119.899338      -38.458015
 C         -43.103447     -119.371925      -39.506306
 C         -45.163284     -119.109779      -38.141159
 C         -43.919167     -118.897797      -40.725052
 C         -45.973045     -118.743950      -39.369274
 C         -45.056229     -117.946884      -40.466213
 H         -42.288338     -119.982544      -39.864555
 H         -42.689674     -118.503334      -39.101765
 H         -45.838650     -119.629814      -37.445740
 H         -44.854408     -118.275475      -37.540573
 H         -44.261318     -119.902954      -41.017685
 H         -43.271629     -118.684654      -41.666180
 H         -46.847870     -118.082527      -39.260883
 H         -46.321102     -119.672585      -39.861141
 H         -45.630474     -117.848869      -41.388084
 H         -44.631340     -117.053734      -40.151604
