20
 generated by VMD
 C         -20.740662      -64.671455      -17.191025
 N         -20.218704      -65.101051      -16.230370
 H         -24.268261      -63.496761      -17.729446
 H         -21.173517      -64.026276      -17.818537
 C         -24.519197      -64.495346      -18.042889
 C         -24.555536      -64.917297      -19.439877
 C         -25.017483      -65.447548      -16.910236
 C         -24.531609      -66.389160      -19.751768
 C         -24.779207      -66.900047      -17.405394
 C         -25.369457      -67.102859      -18.726202
 H         -23.837795      -64.350739      -19.926863
 H         -25.483400      -64.678963      -19.959824
 H         -24.349920      -65.339729      -16.008524
 H         -26.065683      -65.329384      -16.854677
 H         -23.485310      -66.806374      -19.806160
 H         -25.007643      -66.667618      -20.755537
 H         -25.217350      -67.640526      -16.763210
 H         -23.698864      -67.148209      -17.454185
 H         -25.359831      -68.125435      -18.933592
 H         -26.416557      -66.765648      -18.716730
