20
 generated by VMD
 C          -8.966043      -23.671041        2.677274
 N          -8.290281      -24.556704        2.846109
 H          -8.454183      -23.521965       -1.208521
 H          -9.257492      -22.667139       -2.577609
 C          -8.299176      -23.028053       -2.225771
 C          -7.704375      -24.044794       -3.207204
 C          -7.369931      -21.800978       -2.037618
 C          -7.232255      -23.340887       -4.524306
 C          -6.894473      -21.134003       -3.423492
 C          -6.299888      -22.218765       -4.322796
 H          -8.465946      -24.899675       -3.332544
 H          -6.810760      -24.602617       -2.815204
 H          -7.848989      -20.998562       -1.463924
 H          -6.507962      -22.203405       -1.502693
 H          -8.122005      -23.044044       -5.037625
 H          -6.860711      -24.098608       -5.227647
 H          -6.151003      -20.376575       -3.235188
 H          -7.744701      -20.641344       -3.901857
 H          -6.038432      -21.777514       -5.290130
 H          -5.393116      -22.587629       -3.752714
