20
 generated by VMD
 C         -41.221493     -102.324982      -34.611912
 N         -41.355640     -101.898224      -35.650570
 H         -39.754795     -104.437195      -32.121632
 H         -41.455780     -102.617325      -33.599155
 C         -38.631271     -104.532753      -31.998188
 C         -37.661880     -103.779503      -32.856342
 C         -38.168274     -105.568634      -30.992636
 C         -36.273891     -103.647064      -32.222031
 C         -36.940945     -105.143997      -30.253029
 C         -35.829277     -104.797325      -31.244850
 H         -38.167305     -102.785194      -32.989079
 H         -37.540195     -104.301941      -33.857868
 H         -38.915726     -105.736908      -30.285900
 H         -38.080761     -106.452110      -31.669558
 H         -36.334190     -102.615402      -31.756815
 H         -35.398804     -103.616180      -32.884655
 H         -36.701237     -105.877846      -29.468370
 H         -36.998840     -104.234840      -29.736158
 H         -34.952923     -104.366539      -30.591558
 H         -35.509109     -105.684303      -31.796085
