20
 generated by VMD
 C         -57.188072     -163.166077      -56.510754
 N         -57.173351     -162.346741      -57.300621
 H         -59.625633     -165.074417      -54.885117
 H         -57.195053     -163.942505      -55.785912
 C         -60.608013     -164.790710      -54.730415
 C         -61.289700     -164.773941      -53.375706
 C         -61.510052     -164.439697      -55.948345
 C         -62.493904     -163.833603      -53.119488
 C         -62.963398     -163.796967      -55.624687
 C         -63.581539     -164.068878      -54.226231
 H         -60.606335     -164.913925      -52.572952
 H         -61.758423     -165.778458      -53.249836
 H         -60.816044     -163.747513      -56.637970
 H         -61.638264     -165.351639      -56.576637
 H         -62.127853     -162.863525      -53.292179
 H         -62.985233     -163.996231      -52.154732
 H         -63.730785     -164.172501      -56.376255
 H         -63.030766     -162.700241      -55.968094
 H         -64.437935     -163.400879      -54.006664
 H         -63.867172     -165.120636      -54.131084
