20
 generated by VMD
 C         -38.650867     -113.411514      -36.225319
 N         -37.485500     -113.515823      -36.064556
 H         -41.370502     -114.499527      -35.229137
 H         -39.705715     -113.376801      -36.222649
 C         -42.289944     -114.526955      -35.738171
 C         -42.111015     -114.684456      -37.171822
 C         -43.578007     -114.103882      -34.990444
 C         -43.477684     -115.043968      -37.881268
 C         -44.619358     -114.907730      -35.694515
 C         -44.712067     -114.592331      -37.130428
 H         -41.423275     -115.465233      -37.488632
 H         -41.894146     -113.796036      -37.649734
 H         -43.505276     -114.507362      -34.002338
 H         -43.594559     -113.051659      -35.059822
 H         -43.545475     -116.131409      -38.079029
 H         -43.516018     -114.645905      -38.928078
 H         -45.491646     -114.570259      -35.110126
 H         -44.454678     -116.002075      -35.781700
 H         -45.596130     -115.174210      -37.600498
 H         -44.968018     -113.461563      -37.308556
