20
 generated by VMD
 C         -60.108150     -169.716995      -55.395313
 N         -59.507706     -168.729691      -55.139652
 H         -63.787914     -170.407288      -56.755806
 H         -60.621101     -170.672546      -55.494286
 C         -63.327312     -169.443817      -56.874641
 C         -62.708698     -168.978088      -58.231647
 C         -63.644268     -168.479507      -55.816364
 C         -63.383251     -167.747574      -58.649113
 C         -64.303879     -167.203781      -56.414185
 C         -63.361610     -166.663681      -57.561981
 H         -62.801914     -169.897629      -59.003185
 H         -61.712933     -168.845016      -57.992683
 H         -64.396446     -168.937302      -54.982136
 H         -62.630424     -168.192184      -55.257629
 H         -64.392609     -168.039124      -58.941341
 H         -63.127182     -167.189438      -59.524620
 H         -64.498009     -166.435410      -55.597206
 H         -65.388512     -167.570251      -56.860435
 H         -63.820381     -165.698837      -57.931236
 H         -62.362785     -166.388290      -57.211155
