20
 generated by VMD
 C         -50.697147     -129.221497      -42.982483
 N         -50.258629     -128.313263      -42.398746
 H         -48.577145     -128.284714      -40.467152
 H         -51.053974     -130.117889      -43.449673
 C         -47.559734     -127.745995      -40.567451
 C         -46.327415     -128.456238      -40.029900
 C         -47.207001     -126.386696      -41.028996
 C         -45.218689     -128.519913      -41.023350
 C         -45.961395     -126.335060      -42.046494
 C         -44.804279     -127.141548      -41.456608
 H         -46.650169     -129.528275      -39.750954
 H         -45.996147     -128.061188      -39.047462
 H         -47.998768     -125.870720      -41.592957
 H         -46.987453     -125.783180      -40.150528
 H         -45.655735     -129.018646      -41.985973
 H         -44.283897     -128.934509      -40.494602
 H         -45.792107     -125.251144      -42.245415
 H         -46.402946     -126.780609      -43.002487
 H         -44.083858     -127.339828      -42.200447
 H         -44.295612     -126.578255      -40.664482
