20
 generated by VMD
 C         -65.894630     -177.705246      -56.895870
 N         -66.377380     -176.691910      -57.188232
 H         -64.842972     -175.770340      -59.162128
 H         -65.401581     -178.680588      -56.765675
 C         -64.609818     -174.786438      -59.303055
 C         -65.454300     -173.735855      -58.770531
 C         -63.461983     -174.391586      -60.311592
 C         -65.249268     -172.339081      -59.042286
 C         -63.140530     -172.903122      -60.174335
 C         -64.392029     -172.018219      -60.295731
 H         -65.572769     -173.919022      -57.754887
 H         -66.453758     -173.899399      -59.275734
 H         -62.732960     -175.162872      -60.129299
 H         -63.943928     -174.581802      -61.310452
 H         -64.608719     -171.909988      -58.276272
 H         -66.122734     -171.729416      -59.013538
 H         -62.474384     -172.540604      -61.015079
 H         -62.628929     -172.853287      -59.220211
 H         -64.202827     -170.908539      -60.209599
 H         -64.963959     -172.146652      -61.161015
