20
 generated by VMD
 C         -49.522488     -127.701408      -39.966255
 N         -50.486740     -127.610771      -40.606781
 H         -47.458157     -127.344551      -42.003933
 H         -48.620819     -127.723969      -39.393204
 C         -46.853275     -126.676903      -41.482891
 C         -45.770596     -127.268959      -40.537010
 C         -46.706406     -125.222084      -41.820549
 C         -44.376034     -126.528908      -40.502075
 C         -45.331947     -124.554482      -41.717720
 C         -44.632290     -125.045425      -40.525383
 H         -45.523418     -128.289658      -40.687149
 H         -46.137524     -127.064346      -39.513527
 H         -47.244061     -124.932449      -42.769337
 H         -47.385864     -124.721924      -41.122879
 H         -43.713673     -126.953552      -41.320881
 H         -43.856129     -126.869499      -39.576374
 H         -45.379585     -123.423950      -41.620640
 H         -44.851746     -124.775360      -42.737663
 H         -43.729252     -124.489502      -40.350216
 H         -45.277069     -124.702293      -39.658089
