20
 generated by VMD
 C         -79.461281     -206.615204      -73.479263
 N         -80.481392     -206.121933      -73.107635
 H         -77.975975     -205.002518      -70.755463
 H         -78.479912     -206.843552      -73.925217
 C         -76.960442     -205.314468      -70.593735
 C         -75.924080     -204.297623      -70.971199
 C         -76.705338     -206.640427      -69.994164
 C         -74.580841     -204.453384      -70.203049
 C         -75.509232     -206.530457      -69.057388
 C         -74.281219     -206.002884      -69.874535
 H         -76.456642     -203.291000      -70.958054
 H         -75.791618     -204.507523      -72.044067
 H         -77.447540     -207.260498      -69.463615
 H         -76.375320     -207.284683      -70.801231
 H         -74.770218     -203.906479      -69.278023
 H         -73.893028     -203.876907      -70.751747
 H         -75.277924     -207.600800      -68.637863
 H         -75.825539     -205.860367      -68.199944
 H         -73.395615     -205.844574      -69.217667
 H         -74.091652     -206.750122      -70.621223
