20
 generated by VMD
 C         -11.461408      -27.380960       -1.428494
 N         -12.155804      -26.523413       -1.566468
 H         -10.472180      -25.968857       -4.121938
 H          -9.138557      -25.626945       -5.306390
 C          -9.373547      -26.024082       -4.287076
 C          -8.961527      -27.525597       -4.129956
 C          -8.637321      -25.189754       -3.215818
 C          -7.396112      -27.613882       -4.189099
 C          -7.169297      -25.239201       -3.394284
 C          -6.802406      -26.725374       -3.098027
 H          -9.399779      -27.991514       -5.062813
 H          -9.244616      -27.942398       -3.188909
 H          -8.843276      -24.132452       -3.508418
 H          -9.035416      -25.446280       -2.250011
 H          -7.037424      -27.313318       -5.223453
 H          -7.160619      -28.658691       -3.919037
 H          -6.636750      -24.664614       -2.650568
 H          -6.840863      -24.959641       -4.411886
 H          -5.708642      -26.819136       -3.133701
 H          -7.162975      -27.002966       -2.110173
