20
 generated by VMD
 C         -28.650667      -81.386459      -27.693193
 N         -29.610874      -80.808678      -27.429651
 H         -28.594442      -83.430389      -24.312040
 H         -27.802803      -81.936325      -27.684240
 C         -29.672829      -83.447655      -24.097008
 C         -30.021206      -83.697205      -22.654419
 C         -30.373867      -84.189453      -25.149290
 C         -31.406933      -84.129089      -22.414087
 C         -31.829851      -84.337082      -24.816469
 C         -32.055180      -85.103325      -23.472834
 H         -29.797714      -82.815422      -22.112461
 H         -29.265308      -84.352119      -22.238735
 H         -30.167442      -83.719948      -26.071772
 H         -29.945639      -85.185471      -25.273912
 H         -31.905348      -83.224770      -22.200083
 H         -31.459728      -84.558777      -21.295668
 H         -32.353352      -84.908043      -25.662916
 H         -32.278725      -83.375366      -24.721317
 H         -33.035725      -85.437477      -23.319761
 H         -31.378710      -85.996475      -23.552231
