20
 generated by VMD
 C         -25.137560      -70.981133      -16.911137
 N         -25.249197      -70.911972      -15.776780
 H         -23.877588      -68.457916      -18.665188
 H         -24.855619      -71.023849      -18.016832
 C         -24.512199      -68.926033      -19.482975
 C         -23.810726      -69.684273      -20.597948
 C         -25.871471      -68.269081      -19.736420
 C         -24.866287      -70.532234      -21.244488
 C         -26.887499      -69.271568      -20.529518
 C         -26.113478      -69.790298      -21.782970
 H         -23.083248      -70.470383      -20.325048
 H         -23.459528      -68.959297      -21.284006
 H         -26.264048      -67.778183      -18.854164
 H         -25.646044      -67.419983      -20.289488
 H         -25.150175      -71.284668      -20.561884
 H         -24.423388      -71.099823      -22.097717
 H         -27.827761      -68.776619      -20.660784
 H         -26.974993      -70.136299      -19.935255
 H         -26.813564      -70.374756      -22.361761
 H         -25.791800      -68.914001      -22.378832
