20
 generated by VMD
 C         -80.161491     -206.878647      -74.052368
 N         -80.511253     -206.431671      -75.034683
 H         -77.211868     -207.228607      -72.787621
 H         -79.794243     -207.475250      -73.187454
 C         -76.748093     -207.426941      -71.884544
 C         -75.459747     -206.810608      -71.475830
 C         -77.266281     -208.567200      -71.075027
 C         -75.539009     -206.418259      -69.990089
 C         -77.160667     -208.323853      -69.571823
 C         -75.791595     -207.670135      -69.144852
 H         -75.040222     -205.916122      -71.928978
 H         -74.797569     -207.701141      -71.668411
 H         -78.256714     -208.844116      -71.444092
 H         -76.566895     -209.384491      -71.261009
 H         -76.345001     -205.704483      -69.727646
 H         -74.555313     -206.069977      -69.735802
 H         -77.370659     -209.235046      -69.087357
 H         -77.882706     -207.546005      -69.215118
 H         -75.834312     -207.403381      -68.030167
 H         -75.100197     -208.480484      -69.190483
