20
 generated by VMD
 C         -40.371716      -99.764946      -29.108227
 N         -39.610756     -100.113785      -28.294741
 H         -37.418442      -99.000931      -30.393839
 H         -40.905792      -99.222366      -29.965067
 C         -36.344639      -98.952812      -30.748604
 C         -35.945896      -98.994400      -32.227985
 C         -35.431545      -98.564377      -29.616659
 C         -34.699551      -98.032410      -32.385963
 C         -34.283039      -97.573532      -29.998556
 C         -33.571255      -98.060150      -31.281260
 H         -36.637611      -98.522430      -32.919537
 H         -35.792309     -100.010132      -32.637455
 H         -36.128044      -98.205017      -28.851364
 H         -34.959469      -99.472412      -29.149469
 H         -35.052292      -96.944160      -32.592392
 H         -34.211945      -98.321991      -33.325207
 H         -33.658569      -97.293434      -29.165241
 H         -34.884247      -96.627495      -30.173140
 H         -32.701405      -97.468185      -31.587011
 H         -33.167465      -99.101936      -31.100143
