20
 generated by VMD
 C         -47.644428     -136.680023      -45.975967
 N         -47.022678     -136.252945      -46.822918
 H         -50.661259     -135.822525      -45.577557
 H         -47.938354     -137.011612      -45.004688
 C         -51.332062     -136.588013      -45.202198
 C         -51.769890     -137.634949      -46.179253
 C         -51.931049     -136.435211      -43.848228
 C         -52.033943     -138.994843      -45.529118
 C         -52.201996     -137.911514      -43.146603
 C         -52.851353     -138.818588      -44.186890
 H         -51.127201     -137.747650      -47.098835
 H         -52.716179     -137.252792      -46.675091
 H         -51.174122     -136.002670      -43.149891
 H         -52.724228     -135.751816      -43.712200
 H         -51.068020     -139.390030      -45.215363
 H         -52.637909     -139.672455      -46.230000
 H         -52.963108     -137.704666      -42.351395
 H         -51.244389     -138.211395      -42.777416
 H         -52.910500     -139.761017      -43.639412
 H         -53.902916     -138.447159      -44.186142
