20
 generated by VMD
 C          -1.514808      -13.220892        0.722941
 N          -0.565954      -13.685342        0.377933
 H          -3.991662      -14.157289        2.067794
 H          -4.936573      -13.862921        0.651871
 C          -4.812579      -14.565998        1.464480
 C          -6.197310      -14.572516        2.191799
 C          -4.381843      -15.934144        1.017702
 C          -7.243656      -15.479607        1.480121
 C          -5.450154      -16.716120        0.287473
 C          -6.675222      -16.892612        1.091795
 H          -6.605857      -13.585835        2.237808
 H          -5.984319      -15.003817        3.187174
 H          -3.514331      -15.795424        0.283654
 H          -4.032927      -16.483097        1.959242
 H          -7.636203      -14.933256        0.586208
 H          -8.071976      -15.649734        2.195446
 H          -4.969156      -17.703899        0.067880
 H          -5.662341      -16.212061       -0.669041
 H          -7.437337      -17.413528        0.512206
 H          -6.479352      -17.365248        2.039063
