20
 generated by VMD
 C         -22.989359      -53.513176      -13.849759
 N         -23.656172      -52.860710      -14.486765
 H         -20.924231      -55.219849      -14.291991
 H         -22.294968      -54.188683      -13.337897
 C         -19.735022      -54.998272      -14.066357
 C         -19.124435      -53.604462      -13.811378
 C         -18.774065      -56.113693      -14.321066
 C         -17.925987      -53.797932      -12.828415
 C         -17.444033      -56.123615      -13.487098
 C         -16.857889      -54.756886      -13.301047
 H         -19.903057      -53.002167      -13.332352
 H         -18.671207      -53.201653      -14.699050
 H         -19.185570      -57.057411      -14.180011
 H         -18.496506      -56.061382      -15.386937
 H         -18.349360      -54.214493      -11.900190
 H         -17.610075      -52.791893      -12.546247
 H         -16.822880      -56.792114      -14.041236
 H         -17.610821      -56.604195      -12.486434
 H         -15.971952      -54.731796      -12.668573
 H         -16.488255      -54.472740      -14.319585
