20
 generated by VMD
 C         -15.004780      -45.629135       -6.985032
 N         -14.561650      -46.663116       -6.905308
 H         -15.507016      -44.193428       -9.045514
 H         -14.598849      -44.313049      -10.537819
 C         -15.579515      -44.392673      -10.105591
 C         -16.451691      -43.371422      -10.813601
 C         -15.974864      -45.834385      -10.208505
 C         -16.635996      -43.803875      -12.304611
 C         -16.286308      -46.140060      -11.644506
 C         -17.251701      -45.182232      -12.363406
 H         -16.042557      -42.336281      -10.795436
 H         -17.462959      -43.427570      -10.433430
 H         -15.180314      -46.519085       -9.970989
 H         -16.756866      -45.997963       -9.476787
 H         -15.638559      -43.782585      -12.784396
 H         -17.333893      -43.105839      -12.775431
 H         -16.643835      -47.170269      -11.681256
 H         -15.339998      -46.163551      -12.149616
 H         -17.358080      -45.399940      -13.410716
 H         -18.232018      -45.338814      -11.972786
