20
 generated by VMD
 C         -59.950264     -157.470657      -56.526302
 N         -59.376480     -158.428513      -56.505379
 H         -60.193436     -157.516602      -52.914116
 H         -60.461288     -156.534439      -56.475521
 C         -59.555927     -158.381760      -52.833344
 C         -58.231468     -158.032272      -52.262531
 C         -59.983570     -159.723465      -53.142956
 C         -57.813969     -159.068527      -51.272408
 C         -59.509331     -160.701599      -52.064175
 C         -58.061584     -160.472366      -51.658501
 H         -58.170975     -157.035736      -51.725246
 H         -57.512840     -157.743912      -53.015053
 H         -61.099583     -159.847122      -53.250114
 H         -59.463284     -159.991516      -54.024403
 H         -58.262794     -159.100296      -50.365383
 H         -56.694996     -158.946594      -51.165489
 H         -59.810024     -161.681931      -52.415764
 H         -60.035900     -160.386353      -51.175983
 H         -57.834923     -160.997574      -50.801472
 H         -57.416447     -160.774643      -52.485760
