20
 generated by VMD
 C         -49.905357     -142.777481      -45.378716
 N         -48.840904     -143.101807      -45.280476
 H         -51.883167     -139.634033      -45.657475
 H         -50.883064     -142.348572      -45.301289
 C         -52.541042     -140.086655      -46.338703
 C         -52.276669     -140.344254      -47.722790
 C         -54.089222     -140.319107      -45.918919
 C         -52.819290     -141.769836      -48.255444
 C         -54.397861     -141.726562      -46.285358
 C         -54.247623     -142.000748      -47.762897
 H         -51.141506     -140.342148      -47.840874
 H         -52.735619     -139.648300      -48.422134
 H         -54.372963     -140.155426      -44.871620
 H         -54.601143     -139.526398      -46.377060
 H         -52.087257     -142.602661      -47.837711
 H         -52.784924     -141.757156      -49.432049
 H         -55.455585     -142.104019      -46.192825
 H         -53.802471     -142.359833      -45.616920
 H         -54.608955     -143.076904      -47.895439
 H         -54.985218     -141.231644      -48.266598
