20
 generated by VMD
 C         -39.197895     -116.262314      -35.172165
 N         -39.448441     -115.428955      -34.400902
 H         -41.410767     -115.782173      -37.317993
 H         -39.272400     -117.002167      -35.879860
 C         -42.410984     -115.904099      -37.488503
 C         -43.054413     -115.658401      -38.851891
 C         -43.343979     -115.628601      -36.356098
 C         -44.374954     -116.405647      -39.038658
 C         -44.688843     -116.451637      -36.550991
 C         -45.306480     -116.030273      -37.880547
 H         -42.264774     -116.016342      -39.542702
 H         -43.263042     -114.597206      -39.077232
 H         -42.943451     -116.175346      -35.477200
 H         -43.606091     -114.588669      -36.294842
 H         -44.371075     -117.484398      -39.055256
 H         -44.880089     -116.096039      -40.033104
 H         -45.427002     -116.216530      -35.741169
 H         -44.364883     -117.544571      -36.547832
 H         -46.349964     -116.317055      -37.959782
 H         -45.355236     -114.904327      -37.792274
