20
 generated by VMD
 C         -12.651077      -28.607151       -5.955134
 N         -13.109351      -27.668348       -5.551285
 H         -11.645176      -31.389635       -3.839444
 H         -11.167578      -29.843914       -4.657307
 C         -10.822224      -30.774664       -4.103939
 C          -9.769795      -31.506905       -4.902461
 C         -10.185272      -30.154602       -2.811601
 C          -8.644509      -30.600008       -5.280296
 C          -8.938127      -29.313654       -3.204389
 C          -7.932377      -30.029352       -4.081942
 H         -10.130707      -31.818098       -5.912634
 H          -9.452607      -32.369026       -4.270020
 H         -10.966199      -29.545065       -2.306391
 H          -9.874010      -30.980103       -2.098899
 H          -9.014915      -29.795984       -5.968237
 H          -7.955771      -31.303009       -5.771640
 H          -8.434752      -29.029364       -2.307098
 H          -9.215188      -28.355814       -3.724800
 H          -7.285218      -29.225660       -4.452992
 H          -7.398664      -30.802893       -3.513859
