20
 generated by VMD
 C         -59.912926     -153.084732      -51.242546
 N         -60.563225     -152.220856      -51.653172
 H         -57.079460     -153.428848      -49.446156
 H         -59.373447     -153.821487      -50.705482
 C         -56.255894     -152.844910      -49.834854
 C         -54.877556     -153.240021      -49.517170
 C         -56.626961     -151.389572      -50.325924
 C         -53.821796     -152.505951      -50.387283
 C         -55.630466     -150.984268      -51.407387
 C         -54.225246     -151.094879      -50.896400
 H         -54.636208     -154.270172      -49.673874
 H         -54.736507     -153.133591      -48.433907
 H         -57.586109     -151.381866      -50.799137
 H         -56.602882     -150.621704      -49.551582
 H         -53.604347     -153.203171      -51.189224
 H         -52.787651     -152.453476      -49.968060
 H         -55.677490     -149.826401      -51.697014
 H         -55.601196     -151.619476      -52.261234
 H         -53.443466     -150.570175      -51.670502
 H         -54.116226     -150.398697      -50.071663
