20
 generated by VMD
 C         -47.540852     -137.975296      -46.054508
 N         -47.296478     -137.447525      -47.002422
 H         -50.472137     -137.222260      -44.214989
 H         -47.890858     -138.539474      -45.175346
 C         -51.302898     -137.612946      -44.781410
 C         -51.330959     -138.436157      -46.116920
 C         -52.555706     -137.445786      -43.965584
 C         -52.272640     -139.647064      -46.035450
 C         -53.476704     -138.769501      -44.069321
 C         -53.666119     -139.178467      -45.490036
 H         -50.369244     -138.864975      -46.226612
 H         -51.553013     -137.719193      -46.992149
 H         -52.401054     -137.183105      -42.915531
 H         -53.118912     -136.664871      -44.392067
 H         -51.848988     -140.460449      -45.518562
 H         -52.404408     -140.029465      -47.073498
 H         -54.474854     -138.524277      -43.608795
 H         -53.093842     -139.508942      -43.463951
 H         -54.374245     -139.924866      -45.522266
 H         -54.098053     -138.444946      -46.062092
