20
 generated by VMD
 C         -50.763210     -129.612854      -45.403240
 N         -51.440079     -130.485535      -45.795403
 H         -48.627823     -130.537018      -43.732613
 H         -50.009739     -128.819107      -45.414661
 C         -48.145504     -130.730698      -42.830685
 C         -48.282265     -132.131348      -42.142582
 C         -47.837097     -129.543579      -41.950706
 C         -47.090855     -132.399445      -41.197182
 C         -46.616459     -129.841217      -41.100636
 C         -46.800495     -131.102707      -40.331158
 H         -48.430679     -132.746841      -43.063572
 H         -49.226120     -132.187698      -41.551373
 H         -47.537521     -128.650009      -42.532646
 H         -48.791130     -129.373230      -41.302662
 H         -46.302677     -132.790024      -41.797611
 H         -47.265804     -133.216858      -40.514244
 H         -46.513702     -129.141907      -40.252712
 H         -45.611973     -129.771881      -41.647366
 H         -45.861923     -131.443939      -39.831551
 H         -47.689167     -131.152512      -39.717163
