20
 generated by VMD
 C         -53.020840     -146.817902      -45.019024
 N         -52.112442     -147.173660      -44.414845
 H         -54.414482     -146.745956      -47.873543
 H         -53.884167     -146.609222      -45.673855
 C         -54.387264     -145.788177      -48.314259
 C         -53.143055     -145.610596      -49.084660
 C         -55.083710     -144.509659      -47.835636
 C         -53.384338     -144.702591      -50.375072
 C         -55.276981     -143.596466      -48.970028
 C         -54.016453     -143.360855      -49.906250
 H         -52.847942     -146.633850      -49.267902
 H         -52.338531     -145.227554      -48.404514
 H         -56.071888     -144.737213      -47.432686
 H         -54.320938     -144.100815      -47.030396
 H         -53.854752     -145.259369      -51.116386
 H         -52.467625     -144.514191      -50.772232
 H         -55.678307     -142.697891      -48.619125
 H         -56.045979     -144.036896      -49.693932
 H         -54.219509     -142.629288      -50.694542
 H         -53.251408     -142.951187      -49.182014
