20
 generated by VMD
 C         -50.799625     -129.146759      -44.782917
 N         -50.944633     -130.226868      -44.256287
 H         -49.060368     -128.142273      -41.444111
 H         -50.543610     -128.211868      -45.322159
 C         -48.097172     -128.617462      -41.278805
 C         -47.871788     -130.030869      -40.969181
 C         -47.114521     -127.613785      -40.819187
 C         -46.442829     -130.469620      -41.456974
 C         -45.701389     -127.893234      -41.347485
 C         -45.372307     -129.396973      -41.023651
 H         -48.517590     -130.791992      -41.494564
 H         -47.879261     -130.240402      -39.905399
 H         -47.455589     -126.648293      -41.155548
 H         -47.078533     -127.564728      -39.724670
 H         -46.377007     -130.486420      -42.557476
 H         -46.332172     -131.372284      -40.902477
 H         -44.921703     -127.243240      -40.918358
 H         -45.600365     -127.948120      -42.359516
 H         -44.397892     -129.638947      -41.485241
 H         -45.244320     -129.459076      -39.962967
