20
 generated by VMD
 C         -50.937134     -129.971817      -44.968937
 N         -51.701740     -129.270630      -45.513897
 H         -48.638092     -129.956665      -43.319248
 H         -50.508507     -130.721375      -44.363846
 C         -48.066059     -129.890060      -42.357746
 C         -47.965664     -131.121613      -41.586082
 C         -47.501900     -128.770920      -41.595314
 C         -46.515316     -131.484528      -41.083179
 C         -46.080547     -128.981934      -41.059978
 C         -45.927231     -130.321930      -40.306690
 H         -48.345749     -131.932510      -42.289581
 H         -48.621220     -131.062256      -40.747238
 H         -47.644791     -127.944298      -42.261757
 H         -48.235973     -128.527756      -40.848511
 H         -45.992367     -131.722992      -42.006653
 H         -46.726540     -132.349533      -40.429081
 H         -45.885658     -128.013885      -40.471546
 H         -45.362900     -128.913589      -41.910721
 H         -44.894718     -130.374680      -39.917274
 H         -46.503429     -130.181778      -39.380711
