20
 generated by VMD
 C         -49.538620     -127.569656      -39.462521
 N         -50.460926     -127.454994      -40.124393
 H         -47.086391     -127.154800      -42.426746
 H         -48.572742     -127.626488      -38.979103
 C         -46.250431     -126.558708      -42.051544
 C         -45.638573     -127.219116      -40.800365
 C         -46.641895     -125.046593      -42.057579
 C         -44.462669     -126.305359      -40.332344
 C         -45.421181     -124.311836      -41.564121
 C         -44.734261     -124.842651      -40.278881
 H         -45.286427     -128.241882      -40.799076
 H         -46.405247     -127.236404      -39.968739
 H         -46.808193     -124.832741      -43.146275
 H         -47.493946     -124.946053      -41.405960
 H         -43.673862     -126.476776      -41.078827
 H         -44.127487     -126.647438      -39.339878
 H         -45.626774     -123.279144      -41.378307
 H         -44.775970     -124.236671      -42.443832
 H         -43.768578     -124.375954      -40.438885
 H         -45.241539     -124.335930      -39.420258
