20
 generated by VMD
 C         -51.482300     -145.754410      -43.989140
 N         -51.393547     -146.428665      -44.885902
 H         -53.459118     -144.958862      -46.583511
 H         -51.582485     -145.174362      -43.055840
 C         -53.758358     -144.447968      -47.521133
 C         -52.710583     -144.399887      -48.692909
 C         -54.828411     -143.442245      -47.434299
 C         -53.518803     -143.962662      -50.009857
 C         -55.448029     -142.964767      -48.773392
 C         -54.340408     -142.649628      -49.789482
 H         -52.354164     -145.361862      -48.698254
 H         -51.918365     -143.677094      -48.509342
 H         -55.706524     -143.856247      -46.879383
 H         -54.341511     -142.603729      -46.803665
 H         -54.185459     -144.795380      -50.375938
 H         -52.737709     -143.702728      -50.833385
 H         -56.086159     -142.162415      -48.477024
 H         -56.126671     -143.687469      -49.202236
 H         -54.761223     -142.284195      -50.734451
 H         -53.739025     -141.913071      -49.448223
