20
 generated by VMD
 C         -58.191891     -166.712219      -56.076481
 N         -58.012405     -167.449295      -55.165012
 H         -60.672413     -165.930176      -54.938496
 H         -58.344585     -166.093674      -56.970154
 C         -61.491245     -165.695892      -55.645473
 C         -61.945683     -166.828079      -56.567276
 C         -62.512310     -164.617203      -55.599342
 C         -63.336998     -167.286499      -56.466049
 C         -63.987545     -165.060074      -55.509808
 C         -64.304466     -166.091309      -56.624130
 H         -61.191692     -167.592361      -56.156635
 H         -61.758728     -166.423767      -57.501335
 H         -62.347466     -164.113205      -54.703209
 H         -62.427311     -163.837845      -56.387215
 H         -63.551182     -167.766159      -55.504192
 H         -63.590664     -168.083694      -57.143761
 H         -64.651115     -164.122467      -55.569977
 H         -64.100815     -165.595276      -54.444721
 H         -65.418488     -166.295105      -56.608517
 H         -63.953705     -165.567688      -57.575329
