20
 generated by VMD
 C         -10.537763      -37.653904       -7.488788
 N         -11.467134      -37.107552       -7.875660
 H         -12.597858      -39.882317       -8.121880
 H         -13.819822      -39.499619       -7.101442
 C         -13.644169      -40.027813       -7.989938
 C         -13.905034      -41.503853       -7.884941
 C         -14.430819      -39.407112       -9.082242
 C         -15.377693      -41.848953       -7.746301
 C         -15.905277      -39.704231       -8.892651
 C         -16.162397      -41.200832       -8.795633
 H         -13.325327      -41.939064       -7.061040
 H         -13.383604      -41.916664       -8.721002
 H         -14.265258      -38.274685       -9.081450
 H         -14.053122      -39.710171      -10.065784
 H         -15.806820      -41.645424       -6.748294
 H         -15.527138      -42.949200       -7.856921
 H         -16.468067      -39.399639       -9.781021
 H         -16.346292      -39.231850       -8.011250
 H         -17.230341      -41.394886       -8.668808
 H         -15.906701      -41.546925       -9.758526
