20
 generated by VMD
 C         -69.314873     -180.016602      -62.043247
 N         -69.553291     -181.117279      -62.360176
 H         -66.639549     -180.447571      -59.103447
 H         -69.131927     -178.964066      -61.709736
 C         -66.263733     -179.621368      -59.640762
 C         -65.305267     -179.763657      -60.893841
 C         -66.085907     -178.274002      -58.826157
 C         -65.401398     -178.593399      -61.780151
 C         -65.964294     -177.110992      -59.793602
 C         -64.944038     -177.413391      -60.910080
 H         -65.619423     -180.628052      -61.402897
 H         -64.319832     -179.854523      -60.606033
 H         -66.961769     -178.252899      -58.137634
 H         -65.168785     -178.268097      -58.229473
 H         -66.389023     -178.387589      -62.118645
 H         -64.860901     -178.609573      -62.661629
 H         -65.608650     -176.254837      -59.171288
 H         -66.918831     -176.871445      -60.336563
 H         -65.186081     -176.545959      -61.724209
 H         -63.877274     -177.490479      -60.538246
