20
 generated by VMD
 C         -40.558674     -100.215866      -30.304226
 N         -41.286190     -100.488731      -29.434526
 H         -37.251194     -101.050720      -30.528307
 H         -39.985802     -100.014694      -31.169891
 C         -36.549248     -100.352196      -30.865051
 C         -36.142738     -100.016235      -32.233971
 C         -35.263973     -100.205315      -29.843943
 C         -35.182346      -98.751213      -32.382648
 C         -34.431953      -98.956093      -30.115294
 C         -33.943031      -98.955711      -31.508669
 H         -36.986416      -99.730980      -32.849556
 H         -35.687698     -100.933365      -32.628189
 H         -35.608578     -100.321037      -28.852219
 H         -34.635319     -101.065628      -30.096907
 H         -35.817047      -97.879776      -32.216621
 H         -34.931824      -98.621872      -33.399193
 H         -33.575294      -98.896843      -29.500410
 H         -35.183540      -98.095917      -29.951338
 H         -33.238724      -98.028038      -31.640369
 H         -33.580814      -99.888710      -31.890081
