20
 generated by VMD
 C         -62.667503     -172.072510      -55.333096
 N         -61.962578     -172.999283      -55.339901
 H         -61.677521     -171.330551      -58.131397
 H         -63.336227     -171.203339      -55.226479
 C         -62.504852     -170.595749      -58.180649
 C         -62.377827     -169.075943      -57.977978
 C         -63.799446     -171.236023      -58.659500
 C         -63.628845     -168.308167      -58.240242
 C         -64.926453     -170.255722      -58.801540
 C         -64.824287     -169.150345      -57.802773
 H         -61.617107     -168.737717      -58.642006
 H         -61.964863     -168.902710      -56.917339
 H         -63.653812     -171.801346      -59.598354
 H         -64.170631     -172.008942      -57.881203
 H         -63.682320     -167.974945      -59.317951
 H         -63.631649     -167.365128      -57.763123
 H         -65.909866     -170.710632      -58.675331
 H         -65.038696     -169.857651      -59.844788
 H         -65.730957     -168.573212      -57.850430
 H         -64.593033     -169.374191      -56.678417
