20
 generated by VMD
 C         -50.426022     -145.119980      -45.197937
 N         -50.192242     -145.158340      -44.015343
 H         -53.010384     -143.248276      -45.848080
 H         -50.415554     -145.100143      -46.278454
 C         -53.483982     -143.070572      -46.798393
 C         -52.580765     -143.143967      -48.089615
 C         -54.687382     -142.230728      -46.901501
 C         -53.383820     -143.223206      -49.411663
 C         -55.412876     -142.413971      -48.291954
 C         -54.495861     -142.231216      -49.497143
 H         -51.871937     -143.924225      -48.116882
 H         -51.893597     -142.317902      -48.020134
 H         -55.431736     -142.629349      -46.226013
 H         -54.341545     -141.183624      -46.984699
 H         -53.613007     -144.216568      -49.485809
 H         -52.768162     -142.874100      -50.201157
 H         -56.342823     -141.885086      -48.173115
 H         -55.868568     -143.461594      -48.328579
 H         -54.997799     -142.180054      -50.407116
 H         -54.105507     -141.256821      -49.467697
