20
 generated by VMD
 C         -67.852875     -185.802872      -67.358765
 N         -68.754074     -186.474167      -67.681313
 H         -68.752785     -187.788788      -64.849319
 H         -67.102936     -185.229019      -66.933311
 C         -69.321434     -187.645096      -63.970421
 C         -68.772652     -186.895370      -62.675304
 C         -70.738281     -188.086792      -64.054367
 C         -69.670174     -187.138779      -61.398754
 C         -71.318222     -188.386505      -62.665440
 C         -71.072823     -187.261337      -61.665154
 H         -68.628769     -185.818420      -62.813007
 H         -67.875038     -187.357147      -62.271969
 H         -71.170189     -187.200439      -64.502655
 H         -70.772125     -189.002213      -64.614471
 H         -69.409927     -186.269867      -60.745155
 H         -69.292053     -187.960205      -60.845695
 H         -70.873650     -189.307709      -62.238445
 H         -72.420441     -188.448914      -62.730782
 H         -71.523018     -186.430695      -62.203491
 H         -71.544151     -187.476288      -60.650326
