20
 generated by VMD
 C         -68.747368     -194.979965      -65.507614
 N         -68.713371     -194.767288      -64.393173
 H         -71.209503     -194.330185      -67.750809
 H         -68.853798     -194.956085      -66.612724
 C         -72.023872     -193.784607      -67.231941
 C         -71.740265     -192.536453      -66.524567
 C         -73.378098     -194.297989      -67.429390
 C         -72.889999     -192.120987      -65.614403
 C         -74.615723     -193.486755      -66.962997
 C         -74.210602     -192.158783      -66.378983
 H         -71.668961     -191.822891      -67.387581
 H         -70.847588     -192.632812      -66.019730
 H         -73.697517     -194.436554      -68.521591
 H         -73.285637     -195.180344      -66.833824
 H         -72.811172     -191.120834      -65.265892
 H         -72.857018     -192.780869      -64.728287
 H         -75.264854     -194.062744      -66.300301
 H         -75.166512     -193.281601      -67.872963
 H         -74.277428     -191.335724      -67.148186
 H         -74.982277     -191.903748      -65.632019
