20
 generated by VMD
 C         -19.550117      -57.919868      -17.065716
 N         -19.249817      -58.472393      -18.052944
 H         -22.812864      -59.572044      -16.577158
 H         -19.890753      -57.245224      -16.181950
 C         -22.744097      -60.715469      -16.417841
 C         -23.952099      -61.523335      -16.652304
 C         -21.995861      -60.933945      -15.135158
 C         -23.571117      -62.943134      -16.685820
 C         -21.846783      -62.433666      -14.787069
 C         -22.984163      -63.310131      -15.317175
 H         -24.374294      -61.191948      -17.595592
 H         -24.697355      -61.350132      -15.949392
 H         -21.013910      -60.550106      -15.393240
 H         -22.286089      -60.327351      -14.255861
 H         -22.813717      -63.064125      -17.504942
 H         -24.394140      -63.619450      -16.952761
 H         -21.694387      -62.641136      -13.757162
 H         -20.997597      -62.782604      -15.369721
 H         -22.637440      -64.362350      -15.337904
 H         -23.891674      -63.244778      -14.607598
