20
 generated by VMD
 C         -12.043489      -39.525730       -6.594026
 N         -11.034450      -39.250221       -7.017805
 H         -12.927241      -41.133015       -9.079646
 H         -13.988819      -39.972530       -8.742148
 C         -13.994987      -40.989452       -9.070868
 C         -14.638112      -41.870449       -8.031074
 C         -14.526577      -41.185764      -10.437938
 C         -16.144613      -41.721046       -8.026716
 C         -16.031061      -41.168560      -10.498899
 C         -16.648903      -42.039284       -9.387127
 H         -14.179062      -41.659714       -7.059217
 H         -14.356335      -42.893898       -8.148310
 H         -14.146536      -40.409668      -11.163106
 H         -14.147810      -42.123901      -10.811572
 H         -16.506639      -40.743370       -7.667478
 H         -16.606155      -42.373310       -7.282628
 H         -16.374130      -41.491718      -11.458511
 H         -16.443064      -40.137188      -10.272496
 H         -17.767012      -41.910149       -9.417553
 H         -16.328747      -43.077785       -9.571379
