20
 generated by VMD
 C         -79.740997     -206.874649      -75.496765
 N         -79.981079     -207.432587      -74.474564
 H         -76.976059     -208.000381      -73.312569
 H         -79.323952     -206.530136      -76.420944
 C         -76.885704     -208.329132      -72.247437
 C         -75.622627     -207.892471      -71.426384
 C         -77.837997     -209.263565      -71.643326
 C         -76.003769     -207.743042      -69.859062
 C         -78.168449     -209.054916      -70.221077
 C         -76.946556     -208.785309      -69.368965
 H         -75.156357     -207.122375      -72.009048
 H         -74.849541     -208.665024      -71.498901
 H         -78.702690     -209.370667      -72.287491
 H         -77.369858     -210.278976      -71.640076
 H         -76.235130     -206.709839      -69.657677
 H         -75.063751     -207.825333      -69.310776
 H         -78.745911     -209.814804      -69.733910
 H         -78.806801     -208.102524      -70.234825
 H         -77.112595     -208.735641      -68.251160
 H         -76.436348     -209.752258      -69.442337
