20
 generated by VMD
 C         -47.646885     -137.012131      -46.095810
 N         -47.130814     -136.606491      -47.050926
 H         -50.443913     -136.149887      -44.780991
 H         -48.253059     -137.352493      -45.260254
 C         -51.143661     -136.992508      -44.886169
 C         -51.368523     -137.968582      -46.040611
 C         -52.115353     -136.819580      -43.830814
 C         -52.112671     -139.190430      -45.627159
 C         -52.807152     -138.170334      -43.425426
 C         -53.239735     -138.890045      -44.752163
 H         -50.497665     -138.306168      -46.635727
 H         -52.055595     -137.497025      -46.747765
 H         -51.737747     -136.263214      -42.993721
 H         -52.922798     -136.082016      -44.111523
 H         -51.491730     -139.939346      -45.024616
 H         -52.342438     -139.738678      -46.529572
 H         -53.646172     -137.817917      -42.803669
 H         -52.185284     -138.748871      -42.702950
 H         -54.057503     -139.796570      -44.561752
 H         -53.883034     -138.119766      -45.183395
