20
 generated by VMD
 C         -79.473770     -206.620667      -73.481300
 N         -80.471146     -206.120377      -73.131332
 H         -78.011147     -205.023209      -70.816475
 H         -78.489319     -206.949295      -73.948624
 C         -76.977325     -205.307587      -70.588554
 C         -75.915337     -204.296646      -70.954391
 C         -76.702576     -206.651764      -69.971016
 C         -74.581490     -204.457901      -70.218933
 C         -75.507133     -206.544510      -69.050621
 C         -74.296761     -206.000168      -69.873238
 H         -76.399597     -203.339172      -70.898354
 H         -75.794113     -204.460037      -72.058365
 H         -77.406151     -207.252426      -69.473892
 H         -76.399216     -207.292130      -70.792946
 H         -74.813354     -203.860992      -69.311592
 H         -73.835228     -203.896759      -70.850502
 H         -75.213112     -207.584549      -68.625656
 H         -75.850479     -205.976456      -68.254120
 H         -73.385582     -205.929352      -69.248344
 H         -74.154518     -206.744080      -70.675148
