20
 generated by VMD
 C         -49.509266     -127.660217      -39.814861
 N         -50.481529     -127.567108      -40.476685
 H         -47.377914     -127.227890      -41.837299
 H         -48.584766     -127.789650      -39.242504
 C         -46.592300     -126.597687      -41.638290
 C         -45.734676     -127.252258      -40.559933
 C         -46.716660     -125.158752      -41.892532
 C         -44.443340     -126.464836      -40.550953
 C         -45.332542     -124.529297      -41.708771
 C         -44.729591     -124.959724      -40.354279
 H         -45.379929     -128.211456      -40.902798
 H         -46.270733     -127.265259      -39.589695
 H         -47.097122     -125.016724      -42.945385
 H         -47.530556     -124.632507      -41.346657
 H         -43.758686     -126.582436      -41.436272
 H         -43.868774     -126.990746      -39.770599
 H         -45.225002     -123.447601      -41.847214
 H         -44.726040     -124.987679      -42.578323
 H         -43.791828     -124.451759      -40.166321
 H         -45.359848     -124.785912      -39.401661
