20
 generated by VMD
 C         -50.317020     -129.548004      -43.459221
 N         -50.834549     -129.712357      -44.462399
 H         -49.181931     -127.965912      -40.882160
 H         -49.819649     -129.404984      -42.485668
 C         -48.088314     -128.096313      -41.054890
 C         -47.678814     -129.624695      -40.835575
 C         -46.943863     -127.126503      -40.722488
 C         -46.397041     -129.875031      -41.661865
 C         -45.718086     -127.554520      -41.485928
 C         -45.251427     -128.969879      -41.201981
 H         -48.509979     -130.224701      -41.100357
 H         -47.445477     -129.822983      -39.726521
 H         -47.324028     -126.049736      -40.931080
 H         -46.795048     -127.144493      -39.618427
 H         -46.690411     -129.816650      -42.672409
 H         -46.035614     -130.848755      -41.391090
 H         -44.864941     -126.878960      -41.238438
 H         -45.958920     -127.522263      -42.555096
 H         -44.345596     -129.212280      -41.784466
 H         -45.087524     -128.993820      -40.109978
