20
 generated by VMD
 C         -31.220970      -75.712479      -21.475639
 N         -32.339771      -75.313202      -21.433554
 H         -27.791903      -75.368011      -20.027771
 H         -30.428650      -75.996063      -22.049629
 C         -26.962013      -75.264992      -20.686005
 C         -26.471794      -76.479149      -21.480356
 C         -26.013437      -74.124466      -20.427359
 C         -25.931211      -76.010803      -22.806782
 C         -25.413103      -73.713882      -21.731831
 C         -24.779377      -74.869812      -22.493782
 H         -27.253153      -77.299568      -21.595881
 H         -25.789665      -77.076317      -20.898354
 H         -26.371574      -73.219666      -19.994495
 H         -25.120611      -74.550377      -19.775942
 H         -26.773710      -75.594536      -23.450880
 H         -25.439713      -76.805969      -23.447012
 H         -24.709345      -72.902298      -21.599026
 H         -26.113680      -73.248177      -22.430460
 H         -24.536386      -74.511032      -23.507025
 H         -23.968950      -75.381187      -21.927048
