20
 generated by VMD
 C         -47.943565     -134.794495      -46.493183
 N         -47.874977     -134.523010      -47.650883
 H         -50.707108     -134.490875      -45.073109
 H         -47.695168     -134.796982      -45.394279
 C         -50.760357     -135.501205      -44.591038
 C         -51.250557     -136.655380      -45.300381
 C         -51.187443     -135.248444      -43.184006
 C         -51.202980     -137.893021      -44.450428
 C         -50.998932     -136.525970      -42.332802
 C         -51.700268     -137.728653      -42.990627
 H         -50.757023     -136.822021      -46.275757
 H         -52.326546     -136.643356      -45.560802
 H         -50.565075     -134.568634      -42.645691
 H         -52.240402     -134.816818      -43.168999
 H         -50.173660     -138.370529      -44.524509
 H         -51.793049     -138.602539      -44.968376
 H         -51.471252     -136.274887      -41.361210
 H         -49.932770     -136.759796      -42.204868
 H         -51.288746     -138.704758      -42.527477
 H         -52.764439     -137.610733      -43.008118
