20
 generated by VMD
 C         -14.044384      -28.781666       -7.343152
 N         -13.294955      -28.943895       -8.149038
 H         -11.707601      -30.311550       -4.713197
 H         -10.161346      -29.978901       -3.958676
 C         -10.737065      -30.816927       -4.395489
 C          -9.961878      -31.422159       -5.498495
 C         -10.985822      -31.801868       -3.253746
 C          -8.744452      -32.131413       -5.001644
 C          -9.664575      -32.432293       -2.677938
 C          -8.866830      -33.012138       -3.805181
 H          -9.553574      -30.604555       -6.168610
 H         -10.595674      -32.061382       -6.096651
 H         -11.564528      -31.354639       -2.420834
 H         -11.570752      -32.654320       -3.607209
 H          -7.989952      -31.332138       -4.698799
 H          -8.283722      -32.595741       -5.918712
 H          -9.845112      -33.132153       -1.919393
 H          -9.162453      -31.522724       -2.226837
 H          -7.846373      -33.291759       -3.462699
 H          -9.339854      -34.028561       -4.047240
