20
 generated by VMD
 C         -28.465481      -84.506989      -26.718163
 N         -27.814650      -83.546806      -26.824520
 H         -31.327713      -84.448547      -26.248646
 H         -29.183849      -85.362465      -26.551224
 C         -31.445091      -85.453201      -25.769928
 C         -31.506876      -85.459549      -24.270422
 C         -31.926748      -86.651741      -26.610350
 C         -32.846542      -86.015144      -23.788994
 C         -33.317947      -86.961006      -26.156057
 C         -33.206161      -87.379250      -24.607754
 H         -31.450634      -84.487785      -23.894178
 H         -30.730417      -86.176483      -23.916059
 H         -31.769888      -86.486214      -27.695013
 H         -31.271032      -87.480675      -26.355215
 H         -33.639309      -85.264175      -23.913044
 H         -32.799828      -86.375633      -22.822702
 H         -33.636818      -87.845367      -26.700922
 H         -33.984097      -86.091469      -26.486576
 H         -34.166473      -87.577728      -24.136137
 H         -32.511997      -88.259903      -24.442175
