20
 generated by VMD
 C         -32.527668      -95.894958      -25.504614
 N         -33.150574      -95.589951      -24.587769
 H         -34.172924      -94.066689      -27.574848
 H         -32.089523      -96.025352      -26.400667
 C         -34.372684      -93.645638      -28.558308
 C         -35.846828      -93.564438      -28.876539
 C         -33.346359      -93.420418      -29.604401
 C         -36.146202      -92.327934      -29.676001
 C         -33.729477      -92.157127      -30.280064
 C         -35.151134      -92.140991      -30.855762
 H         -36.472942      -93.559410      -27.961178
 H         -36.161098      -94.502602      -29.503817
 H         -32.357552      -93.372574      -29.157522
 H         -33.437778      -94.279091      -30.307487
 H         -36.075356      -91.486946      -28.855993
 H         -37.183704      -92.296150      -29.923975
 H         -33.053551      -91.930183      -31.071692
 H         -33.753681      -91.371696      -29.546989
 H         -35.392918      -91.309784      -31.402636
 H         -35.318352      -92.889526      -31.640711
