20
 generated by VMD
 C         -11.571392      -33.705368       -9.048004
 N         -11.231203      -34.540600       -8.348787
 H         -11.564055      -37.058598       -8.114562
 H         -12.094877      -36.312878       -6.505660
 C         -12.297348      -37.170082       -7.275523
 C         -12.021098      -38.506100       -6.554529
 C         -13.670983      -37.037956       -7.866052
 C         -13.145470      -38.798786       -5.555734
 C         -14.685869      -37.256832       -6.797360
 C         -14.538743      -38.638145       -6.161315
 H         -11.051685      -38.556454       -6.059975
 H         -11.887566      -39.314926       -7.304243
 H         -13.780583      -36.002480       -8.297532
 H         -13.888963      -37.662155       -8.752378
 H         -13.035611      -38.288719       -4.609869
 H         -13.067522      -39.869480       -5.219910
 H         -15.738220      -37.219421       -7.248577
 H         -14.631216      -36.499233       -5.989727
 H         -15.271158      -38.676895       -5.366791
 H         -14.811179      -39.469013       -6.879732
