20
 generated by VMD
 C         -59.455822     -158.216980      -57.206810
 N         -58.486259     -158.544861      -57.684879
 H         -60.486263     -158.230118      -53.409519
 H         -60.381908     -157.964386      -56.769077
 C         -59.997330     -159.090729      -52.892754
 C         -58.545643     -159.113998      -52.475555
 C         -60.668030     -160.431229      -53.166595
 C         -58.369648     -160.183960      -51.400356
 C         -60.346519     -161.531174      -52.173195
 C         -58.973835     -161.529968      -51.686462
 H         -58.356453     -158.114243      -52.038517
 H         -57.945972     -159.448013      -53.360695
 H         -61.821884     -160.145874      -53.143723
 H         -60.495895     -160.786636      -54.186710
 H         -58.651619     -159.866714      -50.459003
 H         -57.231232     -160.241867      -51.232468
 H         -60.574188     -162.440948      -52.782276
 H         -61.047527     -161.560760      -51.254349
 H         -58.700790     -162.217545      -50.968735
 H         -58.358368     -161.992569      -52.455471
