20
 generated by VMD
 C         -38.708141     -111.394203      -36.486099
 N         -38.361839     -110.295593      -36.498238
 H         -40.128376     -114.007370      -35.098366
 H         -39.224213     -112.351463      -36.212440
 C         -41.091515     -113.535042      -35.358059
 C         -41.706528     -113.813942      -36.744015
 C         -41.790615     -112.493568      -34.421764
 C         -43.242363     -114.160866      -36.491882
 C         -43.272312     -112.900635      -34.339756
 C         -43.860138     -112.973244      -35.757702
 H         -41.196339     -114.606728      -37.306755
 H         -41.542408     -112.918495      -37.414448
 H         -41.271179     -112.692497      -33.476761
 H         -41.467010     -111.537506      -34.781738
 H         -43.127777     -114.986557      -35.719566
 H         -43.848492     -114.349213      -37.371311
 H         -43.811729     -112.269341      -33.612751
 H         -43.435856     -113.940002      -33.948257
 H         -44.949074     -113.090500      -35.613373
 H         -43.649921     -112.060837      -36.333065
