20
 generated by VMD
 C         -11.789844      -41.909775       -6.909269
 N         -11.306013      -40.884087       -6.896588
 H         -14.323142      -40.850498       -8.342193
 H         -15.453101      -40.254681       -9.646606
 C         -15.042667      -41.159275       -9.096900
 C         -16.301992      -41.692730       -8.396669
 C         -14.396975      -42.187092      -10.081280
 C         -17.244572      -42.382854       -9.366537
 C         -15.412722      -42.680717      -11.077897
 C         -16.588036      -43.405983      -10.381279
 H         -16.905842      -40.925503       -7.878443
 H         -16.076832      -42.465137       -7.589271
 H         -13.525455      -41.715034      -10.510861
 H         -13.933197      -43.035278       -9.446928
 H         -17.804729      -41.637020       -9.970920
 H         -18.120401      -42.758469       -8.788251
 H         -14.931359      -43.379078      -11.825212
 H         -15.767471      -41.811619      -11.551089
 H         -17.352451      -43.656139      -11.094322
 H         -16.127205      -44.259476       -9.872561
