20
 generated by VMD
 C         -40.842361     -103.925041      -37.018059
 N         -40.886833     -104.861710      -36.312572
 H         -39.908356     -105.706711      -34.046593
 H         -40.770931     -103.263794      -37.841980
 C         -39.233913     -106.331184      -33.382652
 C         -37.884769     -106.108025      -32.783405
 C         -39.645721     -107.787392      -33.405136
 C         -37.691410     -106.847977      -31.418594
 C         -39.576080     -108.348625      -32.007755
 C         -38.113426     -108.325592      -31.366552
 H         -37.755035     -105.007233      -32.583553
 H         -37.158756     -106.359268      -33.635414
 H         -40.698936     -107.833237      -33.698082
 H         -39.000343     -108.123474      -34.144245
 H         -38.340347     -106.498672      -30.585426
 H         -36.672726     -106.742432      -30.967274
 H         -39.871803     -109.431145      -32.247158
 H         -40.308796     -107.801926      -31.443401
 H         -38.047401     -108.770851      -30.419077
 H         -37.463387     -108.928055      -32.121662
