20
 generated by VMD
 C         -31.630228      -75.758362      -23.886581
 N         -31.024096      -76.195541      -24.736940
 H         -29.648172      -78.546326      -22.195284
 H         -32.159748      -75.258324      -22.978037
 C         -28.597610      -78.219460      -22.074057
 C         -27.618006      -78.380165      -23.257021
 C         -28.090219      -78.079178      -20.625822
 C         -26.341267      -77.436134      -22.943436
 C         -26.748621      -77.346619      -20.450687
 C         -25.712233      -77.759232      -21.530531
 H         -28.149372      -77.813026      -24.180815
 H         -27.349463      -79.502052      -23.456450
 H         -28.812143      -77.502525      -20.131268
 H         -28.060059      -79.117165      -20.260986
 H         -26.599548      -76.379890      -23.075890
 H         -25.540199      -77.696632      -23.601810
 H         -26.195484      -77.644646      -19.470434
 H         -26.980656      -76.284309      -20.381189
 H         -24.687630      -77.259674      -21.370899
 H         -25.324400      -78.805359      -21.540119
