20
 generated by VMD
 C         -29.982306      -89.595482      -25.717623
 N         -29.218231      -90.468948      -25.847858
 H         -32.056988      -91.284851      -26.829243
 H         -30.696764      -88.899223      -25.452150
 C         -32.894199      -90.771568      -27.264078
 C         -34.291000      -91.263954      -27.224792
 C         -32.665230      -89.613686      -28.194073
 C         -35.384003      -90.170570      -27.106472
 C         -33.604256      -88.517471      -27.740532
 C         -34.988613      -88.947495      -27.932756
 H         -34.409786      -92.093704      -26.565931
 H         -34.294952      -91.847641      -28.171255
 H         -31.587587      -89.337341      -28.387217
 H         -33.064781      -89.725166      -29.207935
 H         -35.357700      -89.843651      -26.035845
 H         -36.348904      -90.528725      -27.420195
 H         -33.428623      -87.565758      -28.198597
 H         -33.467686      -88.325447      -26.667389
 H         -35.797779      -88.270050      -27.723139
 H         -35.328243      -89.277954      -29.007841
