20
 generated by VMD
 C         -12.880466      -30.130842       -8.368040
 N         -13.847833      -30.528906       -8.752264
 H         -10.880206      -30.881685       -5.084406
 H         -10.807667      -31.735405       -3.448636
 C         -10.808906      -31.834209       -4.485035
 C          -9.470257      -32.435417       -4.857562
 C         -11.968685      -32.783356       -4.900784
 C          -9.203251      -33.793587       -4.232709
 C         -11.679046      -34.118675       -4.262462
 C         -10.367278      -34.745136       -4.514444
 H          -8.665657      -31.792929       -4.706621
 H          -9.449176      -32.655689       -5.948182
 H         -12.984626      -32.417698       -4.637673
 H         -11.956965      -33.006134       -5.979545
 H          -9.044648      -33.638779       -3.112464
 H          -8.270862      -34.298031       -4.593656
 H         -12.501942      -34.844772       -4.565258
 H         -11.868587      -33.962914       -3.208328
 H         -10.268797      -35.645756       -3.834226
 H         -10.360905      -35.053993       -5.560407
