20
 generated by VMD
 C         -31.062878      -75.248886      -21.339146
 N         -32.041256      -75.741554      -21.760025
 H         -28.106340      -76.286491      -20.401127
 H         -30.051516      -74.782738      -21.553215
 C         -27.392437      -75.762680      -21.088064
 C         -26.685764      -76.864273      -21.808750
 C         -26.636459      -74.504745      -20.578974
 C         -25.756035      -76.312157      -22.891844
 C         -25.569860      -74.007607      -21.679592
 C         -24.834082      -75.226036      -22.289419
 H         -27.463978      -77.527199      -22.330362
 H         -26.266390      -77.528885      -20.978920
 H         -27.330093      -73.724129      -20.415527
 H         -26.243784      -74.694313      -19.612259
 H         -26.319960      -76.091652      -23.798981
 H         -25.072527      -77.121170      -23.183348
 H         -24.811602      -73.336334      -21.197943
 H         -25.980261      -73.413422      -22.518709
 H         -24.250055      -74.818153      -23.151527
 H         -24.196440      -75.702034      -21.473091
