20
 generated by VMD
 C         -19.894579      -50.891911      -10.316297
 N         -20.469133      -51.220905       -9.362113
 H         -17.509497      -48.891617      -10.202048
 H         -19.102959      -50.760307      -11.386991
 C         -17.245497      -49.063923      -11.255538
 C         -16.185345      -50.084583      -11.565343
 C         -17.429340      -47.832478      -12.112464
 C         -16.205044      -50.400200      -13.043070
 C         -17.674736      -48.248070      -13.504931
 C         -16.559704      -49.164268      -13.968352
 H         -16.349300      -50.950649      -10.996230
 H         -15.200070      -49.669315      -11.289903
 H         -18.179306      -47.189476      -11.654423
 H         -16.460329      -47.378506      -12.035813
 H         -16.940956      -51.153835      -13.199426
 H         -15.256939      -50.876282      -13.306224
 H         -17.800652      -47.414772      -14.242559
 H         -18.591961      -48.831692      -13.553748
 H         -16.814402      -49.508781      -14.952734
 H         -15.658842      -48.617504      -14.071949
