20
 generated by VMD
 C         -57.983742     -167.774673      -55.256401
 N         -56.913082     -168.168732      -54.971085
 H         -61.129139     -166.556152      -55.562035
 H         -58.950493     -167.377213      -55.551613
 C         -62.133568     -166.375504      -55.965359
 C         -62.349583     -167.216492      -57.116642
 C         -62.849167     -165.132645      -55.582809
 C         -63.892754     -167.421524      -57.317734
 C         -64.338615     -165.432358      -55.690617
 C         -64.727417     -166.101562      -57.077530
 H         -61.900982     -168.108704      -57.178600
 H         -61.856506     -166.722931      -58.064270
 H         -62.559891     -164.811172      -54.616131
 H         -62.515034     -164.379547      -56.382805
 H         -64.230103     -168.212250      -56.609318
 H         -64.055756     -167.726715      -58.359634
 H         -64.872780     -164.575333      -55.619797
 H         -64.762611     -165.950562      -54.893845
 H         -65.850609     -166.366455      -57.055664
 H         -64.631538     -165.522247      -58.069138
