20
 generated by VMD
 C         -38.506069     -108.691399      -36.711037
 N         -37.349842     -108.800179      -36.736599
 H         -42.242336     -109.950676      -36.564335
 H         -39.548096     -108.745964      -36.670105
 C         -41.950825     -110.416313      -35.549572
 C         -41.280327     -111.822174      -35.804890
 C         -42.658333     -110.122162      -34.231178
 C         -40.659286     -112.209602      -34.540741
 C         -41.937504     -110.749603      -33.117958
 C         -41.499069     -112.139595      -33.253262
 H         -40.615936     -111.775505      -36.630173
 H         -42.101479     -112.436035      -36.185154
 H         -42.755180     -109.055084      -34.169258
 H         -43.656761     -110.493629      -34.306793
 H         -39.689701     -111.688286      -34.425007
 H         -40.426605     -113.338867      -34.614258
 H         -42.551071     -110.730743      -32.276386
 H         -41.097965     -110.153343      -32.912605
 H         -40.873318     -112.353882      -32.261391
 H         -42.353695     -112.792892      -33.258682
