20
 generated by VMD
 C         -12.369701      -31.974529       -8.789552
 N         -12.637290      -30.905144       -8.642978
 H         -10.495723      -34.757645       -7.522581
 H         -11.559127      -33.724571       -6.535705
 C         -11.183420      -34.788582       -6.604962
 C         -10.345813      -35.089985       -5.328946
 C         -12.395292      -35.601894       -6.753231
 C         -11.200613      -35.241974       -4.053246
 C         -13.200121      -35.648876       -5.506856
 C         -12.391035      -36.111740       -4.310143
 H          -9.497911      -34.399677       -5.181198
 H          -9.904467      -36.089359       -5.486225
 H         -12.942785      -35.353100       -7.663340
 H         -12.013774      -36.623642       -6.959599
 H         -11.571385      -34.281166       -3.678090
 H         -10.519038      -35.558495       -3.252688
 H         -14.042780      -36.414349       -5.675687
 H         -13.668135      -34.715496       -5.335305
 H         -12.991296      -36.092014       -3.455578
 H         -12.094969      -37.151073       -4.506046
