20
 generated by VMD
 C         -50.681252     -129.562698      -45.690830
 N         -51.129192     -130.593124      -45.393154
 H         -48.755863     -130.966904      -44.008137
 H         -50.313957     -128.722549      -46.306896
 C         -48.238400     -131.006271      -43.116493
 C         -48.339355     -132.354858      -42.297073
 C         -47.905548     -129.833023      -42.227669
 C         -47.240044     -132.528915      -41.209862
 C         -46.857578     -130.092316      -41.081543
 C         -47.118412     -131.357574      -40.285389
 H         -48.333710     -133.197632      -42.955154
 H         -49.306614     -132.368973      -41.700546
 H         -47.647579     -128.988815      -42.880238
 H         -48.794586     -129.536896      -41.710709
 H         -46.248081     -132.746933      -41.650204
 H         -47.437962     -133.471863      -40.638515
 H         -46.911381     -129.194000      -40.461975
 H         -45.772930     -130.068359      -41.416771
 H         -46.126965     -131.564667      -39.688953
 H         -48.005665     -131.063583      -39.703358
