20
 generated by VMD
 C          -5.592445      -21.241329        1.584217
 N          -5.605230      -21.119204        2.697027
 H          -4.941130      -18.663235       -0.764072
 H          -5.830266      -20.190262       -0.098923
 C          -5.734494      -19.382601       -1.043736
 C          -5.522854      -20.062012       -2.374463
 C          -7.102646      -18.710880       -1.060696
 C          -6.628238      -21.130871       -2.573631
 C          -8.244784      -19.797337       -1.173553
 C          -8.054951      -20.666275       -2.379427
 H          -4.548883      -20.621979       -2.343810
 H          -5.571037      -19.319166       -3.106473
 H          -7.310340      -18.126055       -0.124607
 H          -7.241489      -18.013197       -1.921480
 H          -6.324451      -21.995350       -1.969842
 H          -6.600461      -21.445570       -3.600238
 H          -9.206900      -19.305346       -1.196959
 H          -8.302382      -20.404621       -0.264393
 H          -8.719898      -21.520815       -2.314053
 H          -8.250659      -20.070063       -3.252528
