20
 generated by VMD
 C         -11.278936      -32.513756       -8.844653
 N         -12.045521      -32.872604       -9.570939
 H         -11.889695      -33.829880       -6.361604
 H         -12.606790      -34.239769       -4.807330
 C         -12.229502      -34.639561       -5.767936
 C         -10.985206      -35.525681       -5.616323
 C         -13.407276      -35.313446       -6.508544
 C         -11.425252      -36.846462       -4.878972
 C         -13.804098      -36.470810       -5.698951
 C         -12.727701      -37.516045       -5.498486
 H         -10.301572      -34.965176       -4.961991
 H         -10.564545      -35.813137       -6.556873
 H         -14.201201      -34.541122       -6.523158
 H         -13.204956      -35.639923       -7.559393
 H         -11.635036      -36.593605       -3.824764
 H         -10.605570      -37.589371       -5.005671
 H         -14.635084      -36.911816       -6.173700
 H         -14.127451      -36.132786       -4.665845
 H         -13.060666      -38.349514       -4.810283
 H         -12.489926      -38.005199       -6.425610
