20
 generated by VMD
 C         -58.220951     -167.519485      -55.356140
 N         -57.147793     -167.947372      -55.041046
 H         -61.465805     -166.595093      -55.106129
 H         -59.201572     -167.189163      -55.787266
 C         -61.960873     -166.190659      -55.960735
 C         -62.230778     -166.990891      -57.127171
 C         -62.737209     -164.937164      -55.635830
 C         -63.654465     -167.370499      -57.024223
 C         -64.173531     -165.308212      -55.621655
 C         -64.591362     -166.206512      -56.818470
 H         -61.597130     -167.751007      -57.210575
 H         -62.103245     -166.486069      -58.182590
 H         -62.336617     -164.545105      -54.738941
 H         -62.555969     -164.192825      -56.466682
 H         -63.809971     -168.121567      -56.216236
 H         -63.964539     -167.734879      -58.022346
 H         -64.763664     -164.468689      -55.652580
 H         -64.457428     -165.833252      -54.778343
 H         -65.668434     -166.615463      -56.799950
 H         -64.679756     -165.452316      -57.691296
