20
 generated by VMD
 C         -47.695751     -136.693604      -45.977425
 N         -47.057419     -136.353210      -46.906677
 H         -50.705593     -135.788971      -45.588299
 H         -48.295609     -136.961304      -45.085575
 C         -51.129929     -136.672241      -45.200176
 C         -51.628899     -137.708313      -46.123226
 C         -51.943275     -136.570969      -43.808708
 C         -52.050285     -139.055069      -45.466381
 C         -52.356369     -137.964874      -43.257019
 C         -53.087955     -138.840271      -44.307003
 H         -50.923550     -137.897003      -46.943176
 H         -52.576508     -137.159134      -46.451389
 H         -51.137611     -136.163223      -43.180008
 H         -52.777569     -135.932587      -43.977158
 H         -51.258286     -139.636002      -45.015640
 H         -52.271667     -139.712357      -46.361031
 H         -53.088543     -137.880951      -42.471527
 H         -51.617607     -138.565063      -42.742924
 H         -53.341110     -139.856155      -43.966034
 H         -53.998936     -138.308914      -44.743778
