20
 generated by VMD
 C         -27.457176      -84.615868      -26.401445
 N         -27.818968      -85.597343      -26.859076
 H         -31.413561      -84.716499      -25.925253
 H         -27.236961      -83.653679      -26.012060
 C         -31.895439      -85.681297      -25.795868
 C         -32.362076      -85.881783      -24.343924
 C         -32.271496      -86.630417      -26.932945
 C         -33.595566      -86.973885      -24.285517
 C         -33.489986      -87.366333      -26.595949
 C         -33.420769      -88.030403      -25.288086
 H         -32.774517      -85.017807      -23.791632
 H         -31.601419      -86.319832      -23.784910
 H         -32.273357      -86.089836      -27.841612
 H         -31.328501      -87.227699      -26.992170
 H         -34.556892      -86.431458      -24.449800
 H         -33.604218      -87.535919      -23.382244
 H         -33.638878      -88.181496      -27.275455
 H         -34.390835      -86.705780      -26.681585
 H         -34.282173      -88.733208      -25.148317
 H         -32.599922      -88.678360      -25.326365
