20
 generated by VMD
 C         -14.284092      -45.476906       -5.963908
 N         -14.482631      -45.799236       -7.022465
 H         -15.333794      -44.188213       -9.099631
 H         -14.470738      -44.123749      -10.568202
 C         -15.465375      -44.268990      -10.169383
 C         -16.484104      -43.247265      -10.568975
 C         -15.820156      -45.704666      -10.484936
 C         -16.762342      -43.552399      -12.039356
 C         -16.275318      -46.026310      -11.901205
 C         -17.304544      -44.959160      -12.308208
 H         -16.195988      -42.163055      -10.474767
 H         -17.390722      -43.316746       -9.930579
 H         -14.975658      -46.358234      -10.238889
 H         -16.646837      -46.031578       -9.785701
 H         -15.860512      -43.271511      -12.594358
 H         -17.503716      -42.815865      -12.363433
 H         -16.657738      -47.091686      -12.065164
 H         -15.409367      -45.870575      -12.581841
 H         -17.504635      -45.112133      -13.371740
 H         -18.182478      -45.058369      -11.667954
