20
 generated by VMD
 C         -59.245396     -158.348846      -56.044552
 N         -58.890091     -158.555542      -57.153343
 H         -60.607254     -157.962662      -52.694965
 H         -59.623199     -158.179733      -55.038593
 C         -59.937744     -158.812241      -52.873089
 C         -58.537663     -158.702850      -52.788250
 C         -60.506432     -160.183044      -53.255138
 C         -58.198391     -159.607574      -51.656891
 C         -60.142174     -161.250427      -52.234974
 C         -58.604504     -161.126617      -51.914383
 H         -58.133751     -157.728256      -52.585423
 H         -57.968857     -158.988968      -53.636314
 H         -61.592510     -160.112503      -53.231964
 H         -60.242016     -160.425217      -54.339497
 H         -58.680450     -159.346024      -50.666866
 H         -57.206238     -159.450363      -51.534092
 H         -60.612339     -162.188828      -52.646603
 H         -60.558887     -161.100632      -51.256237
 H         -58.325794     -161.692810      -51.019245
 H         -58.128017     -161.538574      -52.724552
