20
 generated by VMD
 C         -29.569052      -87.934158      -24.973051
 N         -28.929588      -88.397697      -25.866728
 H         -31.260633      -89.331688      -27.674318
 H         -30.034830      -87.613197      -24.108974
 C         -32.273949      -89.560486      -27.419912
 C         -32.698067      -89.452248      -25.986319
 C         -33.444492      -89.437309      -28.499901
 C         -33.513607      -88.215111      -25.655853
 C         -34.161530      -88.179726      -28.161873
 C         -34.568134      -87.869720      -26.708235
 H         -31.938442      -89.591255      -25.203999
 H         -33.287071      -90.328346      -25.779005
 H         -33.022114      -89.673134      -29.526316
 H         -34.193596      -90.242172      -28.310163
 H         -32.804806      -87.415154      -25.584808
 H         -34.015965      -88.357246      -24.686043
 H         -35.043003      -88.122025      -28.777744
 H         -33.444153      -87.396500      -28.554960
 H         -34.906860      -86.775253      -26.681570
 H         -35.443588      -88.491982      -26.425186
