20
 generated by VMD
 C         -32.479145      -93.202515      -25.522154
 N         -32.911892      -94.260704      -25.619158
 H         -33.482555      -94.426758      -28.427116
 H         -32.260933      -92.209541      -25.441702
 C         -34.249210      -94.030350      -29.088078
 C         -35.508953      -93.575363      -28.406019
 C         -33.794712      -93.309830      -30.330944
 C         -35.292297      -92.150795      -28.090612
 C         -33.490051      -91.902328      -29.905296
 C         -34.712074      -91.285416      -29.237431
 H         -35.574402      -94.361237      -27.599306
 H         -36.446552      -93.769257      -29.041433
 H         -32.794270      -93.613914      -30.716928
 H         -34.572083      -93.364250      -31.083675
 H         -34.501293      -92.264229      -27.385214
 H         -36.244717      -91.827835      -27.598181
 H         -33.245171      -91.198196      -30.677807
 H         -32.568657      -91.916306      -29.268799
 H         -34.423447      -90.289909      -28.737234
 H         -35.519249      -91.184822      -29.984379
