20
 generated by VMD
 C         -39.432434     -105.573227      -37.162052
 N         -40.600048     -105.523430      -37.126102
 H         -39.293713     -107.668274      -35.051716
 H         -38.336613     -105.778091      -37.208885
 C         -39.502136     -108.373421      -34.293751
 C         -38.374489     -108.704285      -33.356785
 C         -40.593880     -109.453308      -34.258873
 C         -38.982288     -108.780540      -31.940928
 C         -41.121021     -109.409393      -32.818630
 C         -40.144466     -109.718239      -31.794548
 H         -37.548923     -107.860748      -33.339321
 H         -37.895523     -109.681847      -33.559769
 H         -41.444466     -109.374611      -35.013496
 H         -40.270645     -110.486313      -34.347870
 H         -39.058193     -107.737114      -31.649029
 H         -38.142689     -109.269600      -31.335840
 H         -41.892559     -110.205734      -32.666485
 H         -41.778259     -108.554138      -32.655785
 H         -40.585094     -109.571877      -30.695885
 H         -39.748783     -110.710861      -31.815857
