20
 generated by VMD
 C          -3.074335      -17.620232        2.643014
 N          -2.958204      -17.942715        1.584913
 H          -5.402888      -19.361652        1.009691
 H          -5.380947      -20.331562       -0.414145
 C          -5.859881      -19.479528        0.049085
 C          -5.576567      -18.165371       -0.764628
 C          -7.347126      -19.588371        0.263760
 C          -6.338054      -17.950623       -2.050064
 C          -8.110588      -19.459806       -1.085810
 C          -7.862270      -18.096954       -1.794360
 H          -4.502411      -18.110544       -0.987963
 H          -5.807724      -17.329678       -0.021718
 H          -7.520647      -20.527655        0.752535
 H          -7.666264      -18.717770        0.790063
 H          -6.093890      -18.768360       -2.717882
 H          -6.117357      -16.958227       -2.376279
 H          -9.168528      -19.622715       -0.868343
 H          -7.689793      -20.276653       -1.714880
 H          -8.416278      -17.956669       -2.738640
 H          -8.158006      -17.308603       -1.120917
