20
 generated by VMD
 C         -50.125919     -131.913177      -46.765106
 N         -49.971413     -132.543869      -47.778084
 H         -47.990173     -132.087082      -43.919693
 H         -50.266827     -131.818939      -45.646885
 C         -48.659138     -132.652527      -43.246906
 C         -49.522236     -133.824890      -43.802601
 C         -48.847343     -132.339233      -41.824474
 C         -49.433418     -135.068512      -42.947052
 C         -48.659260     -133.553268      -40.945480
 C         -49.450615     -134.752914      -41.389004
 H         -49.337395     -133.942047      -44.937588
 H         -50.452259     -133.346649      -43.749249
 H         -48.074986     -131.639862      -41.400108
 H         -49.836231     -131.847229      -41.779633
 H         -48.476654     -135.572815      -43.190212
 H         -50.228645     -135.796921      -43.158436
 H         -48.958225     -133.243347      -39.970078
 H         -47.650009     -133.946594      -40.712040
 H         -49.223339     -135.672516      -40.862644
 H         -50.533798     -134.475739      -41.237419
