20
 generated by VMD
 C         -21.265175      -52.068539      -10.252660
 N         -21.439232      -53.098583      -10.688578
 H         -19.791193      -50.268917      -13.052455
 H         -20.881830      -50.942848       -9.744250
 C         -18.691772      -50.460155      -12.928849
 C         -18.185638      -51.757851      -13.421135
 C         -17.725538      -49.583523      -12.191427
 C         -16.886072      -51.669567      -14.212856
 C         -16.340485      -49.650974      -12.886964
 C         -15.846149      -51.063183      -13.335146
 H         -18.999828      -52.140392      -14.091174
 H         -18.111853      -52.441277      -12.604557
 H         -18.162828      -48.569271      -12.312848
 H         -17.572182      -49.730316      -11.095568
 H         -17.073835      -50.982845      -15.022572
 H         -16.642225      -52.618511      -14.662866
 H         -15.544104      -49.230404      -12.243721
 H         -16.371037      -49.023415      -13.809974
 H         -15.002835      -50.899834      -13.966604
 H         -15.599302      -51.703190      -12.542313
