20
 generated by VMD
 C         -44.679123     -122.421425      -36.103188
 N         -44.176010     -121.792580      -35.240772
 H         -45.192680     -122.781418      -39.271229
 H         -45.269306     -123.061935      -36.792934
 C         -44.892975     -121.753220      -39.536274
 C         -43.454651     -121.255516      -39.494339
 C         -46.059097     -120.668716      -39.445763
 C         -43.300270     -120.047234      -40.306347
 C         -45.729187     -119.432549      -40.213806
 C         -44.354584     -118.943787      -39.857204
 H         -42.882427     -122.150291      -40.010284
 H         -43.102646     -121.151070      -38.438801
 H         -46.926929     -121.158379      -39.778111
 H         -46.222485     -120.217545      -38.477188
 H         -43.480278     -120.290466      -41.326000
 H         -42.344406     -119.508400      -40.121429
 H         -46.386967     -118.597984      -40.001999
 H         -45.559719     -119.704735      -41.329372
 H         -44.213367     -118.062012      -40.500435
 H         -44.250172     -118.641815      -38.826733
