20
 generated by VMD
 C         -11.427048      -41.994190       -6.174963
 N         -10.999800      -41.254410       -6.907437
 H         -14.636199      -41.027935       -8.284822
 H         -15.508109      -40.304592       -9.716273
 C         -15.292911      -41.232162       -9.223646
 C         -16.561255      -41.911835       -8.629708
 C         -14.594565      -42.246784      -10.176383
 C         -17.458521      -42.445496       -9.716627
 C         -15.473927      -43.023220      -11.190948
 C         -16.780472      -43.555313      -10.593451
 H         -17.048553      -41.256145       -7.956869
 H         -16.214676      -42.746181       -8.058579
 H         -13.725809      -41.771877      -10.669186
 H         -14.101225      -43.020489       -9.621280
 H         -17.918869      -41.674103      -10.399487
 H         -18.403301      -42.823280       -9.265373
 H         -14.958179      -43.867886      -11.565192
 H         -15.750704      -42.340496      -12.087904
 H         -17.430676      -43.898598      -11.423718
 H         -16.520313      -44.416576       -9.907964
