20
 generated by VMD
 C         -59.181065     -158.717453      -57.375519
 N         -58.687351     -158.190842      -58.227043
 H         -59.806576     -158.982330      -53.892448
 H         -59.660946     -159.186249      -56.559254
 C         -59.606400     -159.957535      -53.487953
 C         -58.386082     -160.143021      -52.673374
 C         -60.605099     -161.036636      -53.622944
 C         -58.950508     -160.604370      -51.287533
 C         -61.025143     -161.791992      -52.238956
 C         -59.750004     -161.906036      -51.288120
 H         -57.914345     -159.155411      -52.544121
 H         -57.713531     -160.847672      -53.334480
 H         -61.576607     -160.792007      -54.087173
 H         -60.197269     -161.715698      -54.305523
 H         -59.498718     -159.876312      -50.726429
 H         -58.168449     -160.807632      -50.432991
 H         -61.414337     -162.764313      -52.430546
 H         -61.790794     -161.146133      -51.847225
 H         -60.046406     -162.371094      -50.310738
 H         -59.029205     -162.793671      -51.680668
