20
 generated by VMD
 C         -58.240940     -166.878220      -55.961430
 N         -57.856705     -167.536285      -55.112228
 H         -60.868427     -166.033295      -54.950394
 H         -58.541782     -166.315735      -56.850788
 C         -61.668369     -165.835480      -55.684212
 C         -61.956863     -166.842224      -56.739899
 C         -62.578686     -164.637604      -55.578739
 C         -63.340904     -167.305634      -56.585194
 C         -64.012352     -165.069122      -55.556671
 C         -64.303886     -166.140335      -56.563690
 H         -61.258060     -167.672943      -56.610840
 H         -61.769913     -166.463058      -57.869480
 H         -62.357559     -164.063339      -54.632816
 H         -62.513676     -163.916092      -56.456341
 H         -63.399994     -167.768082      -55.548214
 H         -63.689941     -168.015259      -57.427433
 H         -64.525421     -164.195633      -55.693897
 H         -64.142479     -165.403671      -54.540340
 H         -65.345657     -166.381683      -56.507355
 H         -64.315186     -165.652679      -57.497688
