20
 generated by VMD
 C         -28.847689      -81.418320      -27.690865
 N         -29.706903      -80.689308      -27.459459
 H         -29.292265      -82.265083      -24.080816
 H         -27.998707      -82.213547      -27.649456
 C         -29.615822      -83.306839      -23.916559
 C         -29.837433      -83.839012      -22.579134
 C         -30.200699      -84.055641      -25.102802
 C         -31.388565      -83.995232      -22.342560
 C         -31.711178      -84.271812      -24.870531
 C         -31.970409      -84.860832      -23.458080
 H         -29.495886      -83.125267      -21.880798
 H         -29.212955      -84.738129      -22.287340
 H         -30.105598      -83.466911      -25.977161
 H         -29.557438      -84.910637      -25.295956
 H         -31.999098      -83.103439      -22.338041
 H         -31.579865      -84.362236      -21.215591
 H         -32.095005      -84.889297      -25.790607
 H         -32.121746      -83.255005      -24.970909
 H         -33.002945      -84.857681      -23.308659
 H         -31.650827      -85.914581      -23.485769
