20
 generated by VMD
 C         -12.630732      -27.669571       -4.486948
 N         -13.716663      -27.905811       -4.530364
 H         -10.646598      -29.525229       -2.501763
 H         -10.594842      -28.179688       -3.648390
 C          -9.948798      -29.015821       -3.187705
 C          -9.463898      -29.823254       -4.359324
 C          -8.763115      -28.536535       -2.400546
 C          -8.465030      -29.070570       -5.203978
 C          -7.829140      -27.732378       -3.191963
 C          -7.322137      -28.454309       -4.438665
 H         -10.243642      -30.250610       -4.988099
 H          -9.004763      -30.809803       -3.977365
 H          -9.141214      -27.954485       -1.578708
 H          -8.323374      -29.426664       -1.901898
 H          -9.032269      -28.246580       -5.687198
 H          -8.159842      -29.693441       -6.034089
 H          -6.943268      -27.361940       -2.644131
 H          -8.287127      -26.767147       -3.531641
 H          -6.743384      -27.737885       -5.020747
 H          -6.677505      -29.217299       -3.964071
