20
 generated by VMD
 C         -38.392044     -109.027649      -36.633411
 N         -37.269482     -108.806412      -36.457363
 H         -42.223118     -109.886322      -36.615654
 H         -39.470688     -109.157562      -36.768978
 C         -42.036640     -110.600952      -35.751076
 C         -41.665771     -111.986603      -35.872265
 C         -42.837818     -110.292160      -34.397556
 C         -40.743755     -112.475082      -34.771503
 C         -41.917645     -110.662048      -33.169903
 C         -41.344780     -112.143219      -33.296257
 H         -41.197670     -112.272751      -36.817184
 H         -42.505524     -112.740486      -35.900494
 H         -43.164776     -109.233566      -34.210400
 H         -43.689354     -110.939468      -34.296577
 H         -39.785316     -112.045425      -34.839455
 H         -40.572548     -113.579872      -34.976154
 H         -42.577106     -110.653954      -32.219013
 H         -41.085110     -109.886986      -33.073006
 H         -40.621193     -112.320213      -32.501686
 H         -42.249538     -112.747032      -33.228378
