20
 generated by VMD
 C         -58.058136     -165.624573      -56.306564
 N         -57.253548     -165.177307      -57.012333
 H         -60.415241     -164.458862      -53.953461
 H         -58.891758     -165.968018      -55.712498
 C         -61.310894     -164.860825      -54.539230
 C         -61.774666     -166.231995      -54.581753
 C         -61.815605     -163.945892      -55.653748
 C         -63.335854     -166.428635      -54.828014
 C         -63.373520     -164.066788      -55.878086
 C         -63.886688     -165.498550      -55.946243
 H         -61.676472     -166.659821      -53.508038
 H         -61.269562     -166.751846      -55.424446
 H         -61.612949     -162.828262      -55.439072
 H         -61.263142     -164.201828      -56.641190
 H         -63.812710     -166.188278      -53.767387
 H         -63.695370     -167.525497      -55.084400
 H         -63.663380     -163.496262      -56.804688
 H         -63.695118     -163.729355      -54.958351
 H         -64.983421     -165.490631      -56.031319
 H         -63.600082     -166.050842      -56.839008
