20
 generated by VMD
 C         -78.297798     -209.811554      -77.129646
 N         -78.882431     -208.798355      -77.429031
 H         -78.431732     -210.848404      -73.863998
 H         -77.857231     -210.695923      -76.813087
 C         -78.754860     -211.434998      -72.951126
 C         -77.644554     -211.673447      -71.965431
 C         -79.870949     -212.401581      -72.918922
 C         -78.158073     -212.245041      -70.631622
 C         -80.334938     -212.683304      -71.458916
 C         -79.281509     -213.247696      -70.552322
 H         -77.125046     -210.723770      -71.769859
 H         -76.936417     -212.414719      -72.416473
 H         -80.723907     -212.127518      -73.534676
 H         -79.538193     -213.362625      -73.246109
 H         -78.491394     -211.345123      -70.056046
 H         -77.270477     -212.659119      -70.100990
 H         -81.208267     -213.282791      -71.543449
 H         -80.818474     -211.665222      -71.008560
 H         -79.650002     -213.441132      -69.540359
 H         -78.954140     -214.306396      -70.865105
