20
 generated by VMD
 C         -60.855686     -155.163528      -52.680157
 N         -60.743565     -154.076874      -52.153484
 H         -57.873325     -154.122208      -52.829243
 H         -60.819904     -156.158768      -53.133873
 C         -57.082947     -154.180435      -52.070293
 C         -57.527657     -154.094208      -50.590771
 C         -55.785610     -153.550995      -52.470894
 C         -56.287834     -154.437119      -49.708633
 C         -54.651989     -154.012848      -51.553535
 C         -54.933708     -153.726440      -50.114738
 H         -58.310734     -154.888260      -50.283298
 H         -57.868996     -153.038925      -50.559166
 H         -55.451862     -153.785797      -53.479839
 H         -55.910805     -152.452698      -52.386696
 H         -56.307098     -155.463196      -49.960712
 H         -56.584232     -154.484955      -48.645084
 H         -53.747185     -153.407410      -51.900192
 H         -54.337074     -155.037537      -51.697170
 H         -54.156971     -154.344650      -49.595810
 H         -54.969288     -152.671387      -49.917679
