20
 generated by VMD
 C         -74.889267     -201.820999      -66.294502
 N         -74.168137     -201.111664      -65.737579
 H         -76.238052     -199.188232      -68.522766
 H         -75.372452     -202.499268      -66.971886
 C         -75.296677     -198.667938      -68.806953
 C         -75.041870     -197.312485      -68.201393
 C         -74.440727     -199.194977      -69.962341
 C         -73.523064     -197.055099      -68.082306
 C         -73.104027     -198.398804      -70.267960
 C         -72.575218     -197.897675      -68.968567
 H         -75.520302     -197.290527      -67.222694
 H         -75.632080     -196.525223      -68.892105
 H         -74.289986     -200.294617      -69.935707
 H         -75.079247     -199.164368      -70.926155
 H         -73.281982     -197.076752      -66.980614
 H         -73.375916     -196.004410      -68.346649
 H         -73.328545     -197.466415      -70.908386
 H         -72.437378     -199.025467      -70.853905
 H         -72.245399     -198.887268      -68.378983
 H         -71.754089     -197.242432      -68.961693
