20
 generated by VMD
 C         -69.370621     -180.038712      -61.984100
 N         -69.516678     -181.106750      -62.377781
 H         -66.742348     -180.411896      -59.091690
 H         -69.322731     -179.007019      -61.694721
 C         -66.191528     -179.581818      -59.652660
 C         -65.310799     -179.785507      -60.847240
 C         -66.118301     -178.296555      -58.875866
 C         -65.427139     -178.525375      -61.776073
 C         -65.868393     -177.094391      -59.750393
 C         -64.962708     -177.342590      -60.977211
 H         -65.680519     -180.713760      -61.356594
 H         -64.260544     -179.924698      -60.405991
 H         -66.948708     -178.117584      -58.255566
 H         -65.248909     -178.367249      -58.166229
 H         -66.442902     -178.474060      -62.191723
 H         -64.802353     -178.693207      -62.711128
 H         -65.661194     -176.158035      -59.199238
 H         -66.825531     -176.871414      -60.177895
 H         -64.975578     -176.339478      -61.408821
 H         -64.013847     -177.524612      -60.502129
