20
 generated by VMD
 C         -57.102997     -163.842758      -56.717300
 N         -57.254059     -162.829803      -57.275223
 H         -60.103962     -164.027863      -54.234741
 H         -56.927670     -164.772476      -56.231506
 C         -60.894371     -164.621231      -54.559109
 C         -61.620560     -165.403915      -53.500938
 C         -61.495995     -164.591568      -55.957436
 C         -62.961060     -164.576904      -53.342007
 C         -62.816040     -163.806183      -55.861477
 C         -63.730286     -164.401703      -54.697712
 H         -61.142101     -165.359268      -52.468517
 H         -61.831818     -166.459076      -53.917702
 H         -60.825298     -163.939194      -56.616486
 H         -61.515579     -165.631989      -56.355358
 H         -62.792828     -163.508438      -53.069378
 H         -63.615593     -164.927795      -52.442158
 H         -63.383080     -163.853714      -56.829762
 H         -62.483719     -162.640823      -55.538647
 H         -64.614822     -163.799377      -54.558208
 H         -64.133652     -165.304916      -55.031830
