20
 generated by VMD
 C         -23.117493      -55.155651      -16.833134
 N         -23.620235      -54.946667      -15.786359
 H         -19.566544      -55.271065      -15.487280
 H         -22.742239      -55.344265      -17.790676
 C         -19.251640      -56.150379      -14.845311
 C         -19.575842      -56.026138      -13.375532
 C         -18.409018      -57.273048      -15.206115
 C         -20.389465      -57.189255      -12.971424
 C         -18.914661      -58.613605      -14.613834
 C         -19.910770      -58.513012      -13.464355
 H         -20.271349      -55.209385      -13.323483
 H         -18.753260      -55.900101      -12.715078
 H         -18.429859      -57.416416      -16.335470
 H         -17.458746      -56.912308      -14.910657
 H         -21.427330      -57.048801      -13.288220
 H         -20.408957      -57.248905      -11.870567
 H         -18.024385      -59.186165      -14.266151
 H         -19.338318      -59.334721      -15.402277
 H         -20.822504      -59.085861      -13.704818
 H         -19.435652      -58.986565      -12.594948
