20
 generated by VMD
 C         -49.358524     -127.447685      -39.463623
 N         -50.425320     -127.362999      -39.867229
 H         -46.943958     -127.260010      -42.391640
 H         -48.331047     -127.470863      -39.155731
 C         -46.330070     -126.422165      -41.946102
 C         -45.512280     -127.135727      -40.829636
 C         -46.533218     -124.997574      -42.097473
 C         -44.416588     -126.168121      -40.425228
 C         -45.387234     -124.244820      -41.535007
 C         -44.914597     -124.708374      -40.163261
 H         -45.034115     -128.043655      -41.060444
 H         -46.133942     -127.508125      -39.918785
 H         -46.748775     -124.798538      -43.190125
 H         -47.391277     -124.783012      -41.554642
 H         -43.724880     -126.154884      -41.291313
 H         -43.895210     -126.695740      -39.617641
 H         -45.515694     -123.175812      -41.704132
 H         -44.584866     -124.421036      -42.250153
 H         -44.172417     -123.937157      -39.898067
 H         -45.720413     -124.617767      -39.440296
