20
 generated by VMD
 C         -19.967777      -50.147091       -9.883657
 N         -19.936823      -51.246017       -9.569845
 H         -17.054153      -48.448048       -9.941094
 H         -20.278139      -48.964474      -10.230359
 C         -16.870441      -48.676319      -11.038800
 C         -15.960780      -49.769016      -11.595674
 C         -17.546503      -47.738682      -11.973952
 C         -16.059576      -50.144325      -13.101853
 C         -17.903059      -48.379135      -13.327151
 C         -16.627424      -49.006443      -13.934813
 H         -16.085318      -50.684364      -11.076130
 H         -14.906569      -49.469219      -11.365401
 H         -18.462742      -47.327976      -11.551443
 H         -16.826241      -46.977848      -12.202097
 H         -16.527157      -51.137562      -13.241954
 H         -15.010511      -50.283787      -13.481334
 H         -18.356749      -47.625641      -13.961730
 H         -18.726686      -49.160782      -13.277677
 H         -16.915100      -49.356571      -14.972863
 H         -15.779862      -48.290546      -14.141017
