20
 generated by VMD
 C         -40.910286     -103.721161      -35.753822
 N         -41.562305     -104.676567      -35.713642
 H         -38.623802     -104.167206      -33.674957
 H         -40.594521     -102.694977      -35.860085
 C         -38.488022     -104.910576      -32.991669
 C         -37.034836     -104.910233      -32.572456
 C         -39.368267     -106.230835      -33.023849
 C         -36.810543     -105.887825      -31.355860
 C         -39.060226     -106.925819      -31.684858
 C         -37.604496     -107.177834      -31.486528
 H         -36.743828     -103.810188      -32.398800
 H         -36.508472     -105.212166      -33.508221
 H         -40.486977     -106.030579      -33.183887
 H         -39.065594     -106.844147      -33.834251
 H         -37.105553     -105.285316      -30.506104
 H         -35.813244     -106.243874      -31.153666
 H         -39.551987     -107.951889      -31.866158
 H         -39.622089     -106.350044      -30.963282
 H         -37.406422     -107.813667      -30.650257
 H         -37.290115     -107.735031      -32.422848
