20
 generated by VMD
 C         -19.850382      -64.023842      -16.402349
 N         -19.988907      -63.138485      -17.175272
 H         -23.667664      -63.314892      -17.271143
 H         -19.561792      -64.930183      -15.986738
 C         -24.122343      -64.194336      -17.574297
 C         -24.461838      -64.243233      -19.037706
 C         -24.352125      -65.253883      -16.604731
 C         -24.663141      -65.737450      -19.450706
 C         -24.750744      -66.607536      -17.071087
 C         -25.571812      -66.494415      -18.449764
 H         -23.690319      -63.744576      -19.628920
 H         -25.313900      -63.584274      -19.242134
 H         -23.469753      -65.320236      -16.078604
 H         -25.020967      -64.930168      -15.792678
 H         -23.664864      -66.131210      -19.470329
 H         -25.049234      -65.685570      -20.477413
 H         -25.314110      -67.157196      -16.337629
 H         -23.864136      -67.262245      -17.184465
 H         -25.886887      -67.422523      -18.868467
 H         -26.403961      -65.847313      -18.169563
