20
 generated by VMD
 C         -59.825111     -152.117523      -49.909824
 N         -58.786896     -152.495499      -50.153107
 H         -56.671871     -150.871002      -48.549927
 H         -60.777382     -151.654633      -49.719082
 C         -55.727837     -150.631500      -48.994446
 C         -54.822693     -151.641327      -49.762383
 C         -55.373520     -149.101654      -49.129242
 C         -54.243973     -151.251266      -51.081238
 C         -54.846611     -148.755096      -50.632637
 C         -53.784782     -149.813843      -51.110359
 H         -55.249138     -152.675354      -49.813362
 H         -53.963604     -151.811966      -49.181473
 H         -56.218975     -148.517441      -48.872883
 H         -54.559414     -149.042801      -48.386166
 H         -55.084526     -151.253906      -51.792191
 H         -53.508770     -151.915573      -51.583736
 H         -54.430843     -147.796890      -50.566223
 H         -55.787731     -148.729492      -51.223099
 H         -53.503998     -149.619781      -52.123058
 H         -52.843960     -149.784958      -50.385941
