20
 generated by VMD
 C         -36.634850      -98.180298      -26.785913
 N         -37.804405      -98.338165      -26.811779
 H         -36.463104      -96.365120      -28.941856
 H         -35.611946      -98.077126      -26.802296
 C         -35.513649      -96.306236      -29.400805
 C         -35.471497      -97.080910      -30.756870
 C         -34.461578      -95.336548      -29.041716
 C         -35.101856      -96.127556      -31.902351
 C         -34.060844      -94.427742      -30.183905
 C         -33.961140      -95.203957      -31.523226
 H         -36.502007      -97.480209      -30.973408
 H         -34.751583      -97.872246      -30.714422
 H         -34.898960      -94.861633      -28.174795
 H         -33.602436      -95.889488      -28.647106
 H         -35.933731      -95.533371      -32.295937
 H         -34.895737      -96.786194      -32.688843
 H         -33.060143      -94.064201      -29.962543
 H         -34.832355      -93.618576      -30.257042
 H         -33.623573      -94.721046      -32.360344
 H         -33.183395      -95.967201      -31.412312
