20
 generated by VMD
 C         -49.853706     -127.760094      -40.432549
 N         -50.769089     -127.909866      -41.159393
 H         -47.211956     -127.459389      -41.968975
 H         -48.834301     -127.587044      -40.073551
 C         -46.824394     -126.862625      -41.099976
 C         -45.773140     -127.322693      -40.240334
 C         -46.855942     -125.345505      -41.451218
 C         -44.398537     -126.804474      -40.622066
 C         -45.449463     -124.831497      -41.862728
 C         -44.369492     -125.304649      -40.816196
 H         -45.780060     -128.433853      -40.134933
 H         -45.851540     -126.908928      -39.317333
 H         -47.671005     -125.107689      -42.072853
 H         -47.290707     -124.706200      -40.542526
 H         -44.161938     -127.407425      -41.505550
 H         -43.648609     -127.149033      -39.912930
 H         -45.622505     -123.752861      -41.921295
 H         -45.129719     -125.233711      -42.844582
 H         -43.385456     -124.911278      -41.183723
 H         -44.664970     -124.813065      -39.859802
