20
 generated by VMD
 C         -52.560928     -146.479599      -44.295773
 N         -51.748661     -146.584656      -45.069229
 H         -54.018944     -146.092026      -47.309902
 H         -53.395569     -146.420959      -43.655079
 C         -54.005985     -145.141251      -47.815113
 C         -52.858910     -145.032333      -48.931412
 C         -54.858257     -143.946365      -47.533459
 C         -53.398857     -144.319138      -50.173054
 C         -55.295124     -143.348404      -48.816914
 C         -54.244064     -143.127365      -49.935249
 H         -52.519020     -146.091629      -49.079487
 H         -52.047287     -144.494125      -48.589245
 H         -55.727924     -144.101562      -46.879021
 H         -54.344288     -143.200592      -46.828369
 H         -53.958031     -144.996811      -50.708229
 H         -52.608875     -144.229218      -50.875626
 H         -55.899540     -142.475159      -48.585869
 H         -56.057503     -143.949982      -49.266727
 H         -54.830601     -142.923523      -50.796352
 H         -53.625183     -142.296082      -49.577240
