20
 generated by VMD
 C         -16.243223      -47.644665       -7.106373
 N         -16.039112      -46.551239       -7.009228
 H         -16.792362      -48.139984      -10.234952
 H         -15.434177      -47.891285      -11.310701
 C         -16.450306      -47.491718      -11.050250
 C         -16.382952      -46.071423      -10.458817
 C         -17.370434      -47.698292      -12.250516
 C         -15.949831      -45.174721      -11.601530
 C         -16.971294      -46.821693      -13.416924
 C         -16.819927      -45.399609      -12.825428
 H         -15.693597      -46.010536       -9.608020
 H         -17.390203      -45.813656      -10.135269
 H         -17.411190      -48.751713      -12.550364
 H         -18.425119      -47.405067      -11.958749
 H         -14.887692      -45.357136      -11.884266
 H         -16.098152      -44.124622      -11.307416
 H         -17.850880      -46.840637      -13.949382
 H         -16.121155      -47.048367      -14.059097
 H         -16.475945      -44.751511      -13.617269
 H         -17.842562      -45.214146      -12.508984
